data/pglib_opf_case6495_rte_storage.m
%%%%%%%%%%%%%%%%%%%%%%%%%%%%%%%%%%%%%%%%%%%%%%%%%%%%%%%%%%%%%%%%%%%%%%%%%%%
%%%%                                                                  %%%%%
%%%%    IEEE PES Power Grid Library - Optimal Power Flow - v23.07     %%%%%
%%%%          (https://github.com/power-grid-lib/pglib-opf)           %%%%%
%%%%               Benchmark Group - Typical Operations               %%%%%
%%%%                         23 - July - 2023                         %%%%%
%%%%                                                                  %%%%%
%%%%%%%%%%%%%%%%%%%%%%%%%%%%%%%%%%%%%%%%%%%%%%%%%%%%%%%%%%%%%%%%%%%%%%%%%%%
%
%CASE6495RTE
%   AC Power flow data for French system.
%   Please see CASEFORMAT for details on the case file format.
%
%   This case accurately represents the size and complexity of French
%   very high voltage and high voltage transmission network.
%   These data are snapshots of French VHV+HV grid in 2013.
%   These data can be used to validate mathematical methods and tools.
%   These data should NOT be used for operation
%   nor planning of the French or European grids.
%
%   When publishing results using this data, please cite:
%     C. Josz, S. Fliscounakis, J. Maeght, and P. Panciatici,
%     "AC Power Flow Data in MATPOWER and QCQP Format: iTesla, RTE Snapshots, and PEGASE"
%     http://arxiv.org/abs/1603.01533
%
%   Contacts (primary contact for this file : Jean Maeght):
%   Cédric Josz, Stéphane Fliscounakis, Jean Maeght, Patrick Panciatici
%   firstname.lastname@rte-france.com
%   Réseau de Transport d'Electricité (French Transmission System Operator)
%   Département Expertise Système, Immeuble "Le Colbert"
%   9 rue de la Porte de Buc, 78000 Versailles Cedex, France
%   March 4th, 2016
%
%   Copyright (c) 2016 by Cédric Josz, Stéphane Fliscounakis, Jean Maeght,
%   and Patrick Panciatici
%   Licensed under the Creative Commons Attribution 4.0 International license,
%   http://creativecommons.org/licenses/by/4.0/
%
% Modified to have additional storage capacity and increased gencost
function mpc = pglib_opf_case6495_rte
mpc.version = '2';
mpc.baseMVA = 100.0;

%% bus data
%	bus_i	type	Pd	Qd	Gs	Bs	area	Vm	Va	baseKV	zone	Vmax	Vmin
mpc.bus = [
	1	 1	 0.0	 0.0	 0.0	 0.0	 1	    0.94444	    0.00000	 45.0	 1	    1.00000	    0.88889;
	2	 1	 0.0	 0.0	 0.0	 0.0	 1	    1.00000	    0.00000	 63.0	 1	    1.06349	    0.93651;
	3	 1	 13.1	 2.6	 0.0	 0.0	 1	    1.01588	    0.00000	 63.0	 1	    1.07937	    0.95238;
	4	 1	 49.2	 3.4	 0.0	 0.0	 1	    1.01111	    0.00000	 90.0	 1	    1.08889	    0.93333;
	5	 1	 11.0	 0.0	 0.0	 0.0	 1	    1.00794	    0.00000	 63.0	 1	    1.06349	    0.95238;
	6	 1	 13.0	 4.3	 0.0	 0.0	 1	    1.00000	    0.00000	 63.0	 1	    1.07937	    0.92063;
	7	 1	 1.2	 0.7	 0.0	 0.0	 1	    1.00000	    0.00000	 63.0	 1	    1.07937	    0.92063;
	8	 1	 24.6	 13.1	 0.0	 0.0	 1	    0.98889	    0.00000	 225.0	 1	    1.08889	    0.88889;
	9	 1	 14.9	 0.0	 0.0	 0.0	 1	    1.00000	    0.00000	 63.0	 1	    1.06349	    0.93651;
	10	 1	 0.0	 0.0	 0.0	 0.0	 1	    1.00000	    0.00000	 90.0	 1	    1.07778	    0.92222;
	11	 1	 30.7	 -2.0	 0.0	 0.0	 1	    1.00000	    0.00000	 90.0	 1	    1.07778	    0.92222;
	12	 1	 0.0	 0.0	 0.0	 0.0	 1	    1.01588	    0.00000	 63.0	 1	    1.07937	    0.95238;
	13	 1	 0.0	 0.0	 0.0	 0.0	 1	    1.07788	    0.00000	 380.0	 1	    1.10263	    1.05313;
	14	 1	 52.7	 13.4	 0.0	 30.4	 1	    1.02778	    0.00000	 90.0	 1	    1.07778	    0.97778;
	15	 1	 0.0	 0.0	 0.0	 0.0	 1	    1.00000	    0.00000	 63.0	 1	    1.07937	    0.92063;
	16	 1	 12.5	 -0.6	 0.0	 0.0	 1	    1.00000	    0.00000	 63.0	 1	    1.07937	    0.92063;
	17	 1	 10.9	 0.2	 0.0	 0.0	 1	    1.02222	    0.00000	 90.0	 1	    1.06667	    0.97778;
	18	 1	 0.0	 0.0	 0.0	 0.0	 1	    0.94444	    0.00000	 45.0	 1	    1.00000	    0.88889;
	19	 1	 0.0	 0.0	 0.0	 0.0	 1	    1.00000	    0.00000	 63.0	 1	    1.06349	    0.93651;
	20	 1	 3.9	 -18.2	 0.0	 0.0	 1	    0.94444	    0.00000	 45.0	 1	    1.00000	    0.88889;
	21	 1	 6.3	 -2.5	 0.0	 0.0	 1	    1.02222	    0.00000	 90.0	 1	    1.06667	    0.97778;
	22	 1	 17.3	 0.8	 0.0	 0.0	 1	    1.01588	    0.00000	 63.0	 1	    1.07937	    0.95238;
	23	 1	 24.4	 1.4	 0.0	 0.0	 1	    1.00000	    0.00000	 63.0	 1	    1.06349	    0.93651;
	24	 1	 16.7	 -1.3	 0.0	 0.0	 1	    1.03333	    0.00000	 90.0	 1	    1.11111	    0.95556;
	25	 1	 51.1	 -4.0	 0.0	 0.0	 1	    1.02222	    0.00000	 90.0	 1	    1.10000	    0.94444;
	26	 1	 32.4	 5.0	 0.0	 0.0	 1	    1.02222	    0.00000	 90.0	 1	    1.06667	    0.97778;
	27	 1	 0.0	 0.0	 0.0	 0.0	 1	    1.04444	    0.00000	 225.0	 1	    1.08444	    1.00444;
	28	 1	 0.0	 -0.2	 0.0	 0.0	 1	    1.01588	    0.00000	 63.0	 1	    1.07937	    0.95238;
	29	 1	 75.0	 9.3	 0.0	 0.0	 1	    1.01587	    0.00000	 63.0	 1	    1.06349	    0.96825;
	30	 1	 37.6	 3.3	 0.0	 0.0	 1	    1.01111	    0.00000	 90.0	 1	    1.08889	    0.93333;
	31	 1	 0.0	 0.0	 0.0	 0.0	 1	    1.00000	    0.00000	 63.0	 1	    1.06349	    0.93651;
	32	 1	 0.0	 0.0	 0.0	 0.0	 1	    1.00334	    0.00000	 150.0	 1	    1.10667	    0.90000;
	33	 1	 0.0	 0.0	 0.0	 0.0	 1	    1.01111	    0.00000	 225.0	 1	    1.08889	    0.93333;
	34	 1	 0.0	 0.0	 0.0	 0.0	 1	    1.01111	    0.00000	 225.0	 1	    1.08889	    0.93333;
	35	 1	 0.0	 0.0	 0.0	 0.0	 1	    1.07237	    0.00000	 380.0	 1	    1.10526	    1.03947;
	36	 1	 0.0	 0.0	 0.0	 0.0	 1	    1.07237	    0.00000	 380.0	 1	    1.10526	    1.03947;
	37	 1	 2.4	 4.7	 0.0	 0.0	 1	    1.00000	    0.00000	 63.0	 1	    1.07937	    0.92063;
	38	 1	 8.0	 3.0	 0.0	 0.0	 1	    1.01587	    0.00000	 63.0	 1	    1.09524	    0.93651;
	39	 1	 40.6	 -4.9	 0.0	 0.0	 1	    1.02778	    0.00000	 90.0	 1	    1.07778	    0.97778;
	40	 1	 34.7	 5.1	 0.0	 0.0	 1	    1.02778	    0.00000	 90.0	 1	    1.07778	    0.97778;
	41	 1	 0.0	 0.0	 0.0	 0.0	 1	    1.04798	    0.00000	 225.0	 1	    1.09152	    1.00444;
	42	 1	 0.0	 0.0	 0.0	 0.0	 1	    1.04036	    0.00000	 63.0	 1	    1.12834	    0.95238;
	43	 1	 3.3	 2.7	 0.0	 0.0	 1	    1.02778	    0.00000	 90.0	 1	    1.07778	    0.97778;
	44	 1	 15.2	 1.6	 0.0	 0.0	 1	    1.00794	    0.00000	 63.0	 1	    1.06349	    0.95238;
	45	 1	 3.8	 0.8	 0.0	 0.0	 1	    1.02222	    0.00000	 90.0	 1	    1.06667	    0.97778;
	46	 1	 0.0	 0.0	 0.0	 0.0	 1	    1.00000	    0.00000	 63.0	 1	    1.06349	    0.93651;
	47	 2	 0.0	 0.0	 0.0	 0.0	 1	    1.00000	    0.00000	 63.0	 1	    1.06349	    0.93651;
	48	 1	 38.6	 3.9	 0.0	 0.0	 1	    1.00000	    0.00000	 90.0	 1	    1.07778	    0.92222;
	49	 1	 9.9	 -2.6	 0.0	 0.0	 1	    1.00000	    0.00000	 63.0	 1	    1.06349	    0.93651;
	50	 1	 0.0	 0.0	 0.0	 0.0	 1	    1.00554	    0.00000	 63.0	 1	    1.07458	    0.93651;
	51	 1	 0.0	 0.0	 0.0	 0.0	 1	    1.01111	    0.00000	 225.0	 1	    1.08889	    0.93333;
	52	 1	 8.0	 3.5	 0.0	 0.0	 1	    1.02222	    0.00000	 90.0	 1	    1.06667	    0.97778;
	53	 1	 0.1	 -1.2	 0.0	 0.0	 1	    1.00000	    0.00000	 63.0	 1	    1.04762	    0.95238;
	54	 1	 -0.6	 1.2	 0.0	 0.0	 1	    1.02222	    0.00000	 90.0	 1	    1.06667	    0.97778;
	55	 1	 49.0	 11.3	 0.0	 0.0	 1	    1.04717	    0.00000	 225.0	 1	    1.08991	    1.00444;
	56	 1	 78.6	 22.5	 0.0	 0.0	 1	    1.04666	    0.00000	 225.0	 1	    1.08889	    1.00444;
	57	 2	 0.0	 0.0	 0.0	 0.0	 1	    1.00000	    0.00000	 63.0	 1	    1.07937	    0.92063;
	58	 1	 146.7	 32.5	 0.0	 0.0	 1	    1.04710	    0.00000	 225.0	 1	    1.08975	    1.00444;
	59	 1	 5.1	 0.4	 0.0	 0.0	 1	    1.01588	    0.00000	 63.0	 1	    1.07937	    0.95238;
	60	 1	 0.0	 0.0	 0.0	 0.0	 1	    1.01588	    0.00000	 63.0	 1	    1.07937	    0.95238;
	61	 1	 41.4	 11.6	 0.0	 0.0	 1	    1.01588	    0.00000	 63.0	 1	    1.07937	    0.95238;
	62	 1	 0.0	 0.0	 0.0	 0.0	 1	    1.01588	    0.00000	 63.0	 1	    1.07937	    0.95238;
	63	 1	 15.8	 2.0	 0.0	 0.0	 1	    1.01588	    0.00000	 63.0	 1	    1.07937	    0.95238;
	64	 1	 64.3	 5.4	 0.0	 0.0	 1	    0.98889	    0.00000	 225.0	 1	    1.08889	    0.88889;
	65	 1	 12.0	 2.9	 0.0	 0.0	 1	    1.01588	    0.00000	 63.0	 1	    1.07937	    0.95238;
	66	 1	 14.4	 -6.8	 0.0	 0.0	 1	    1.00000	    0.00000	 63.0	 1	    1.06349	    0.93651;
	67	 1	 1.0	 0.0	 0.0	 0.0	 1	    1.00000	    0.00000	 63.0	 1	    1.07937	    0.92063;
	68	 1	 48.7	 3.8	 0.0	 0.0	 1	    1.00000	    0.00000	 63.0	 1	    1.06349	    0.93651;
	69	 1	 17.3	 -1.6	 0.0	 0.0	 1	    1.00794	    0.00000	 63.0	 1	    1.06349	    0.95238;
	70	 1	 11.7	 3.5	 0.0	 0.0	 1	    1.01588	    0.00000	 63.0	 1	    1.07937	    0.95238;
	71	 1	 68.8	 17.2	 0.0	 0.0	 1	    1.00000	    0.00000	 63.0	 1	    1.04762	    0.95238;
	72	 1	 0.0	 0.0	 0.0	 0.0	 1	    1.04668	    0.00000	 225.0	 1	    1.08892	    1.00444;
	73	 1	 0.0	 0.0	 0.0	 0.0	 1	    1.04668	    0.00000	 225.0	 1	    1.08892	    1.00444;
	74	 1	 53.3	 -8.7	 0.0	 0.0	 1	    0.98889	    0.00000	 225.0	 1	    1.08889	    0.88889;
	75	 1	 25.0	 1.6	 0.0	 0.0	 1	    1.02222	    0.00000	 90.0	 1	    1.06667	    0.97778;
	76	 1	 9.0	 0.7	 0.0	 0.0	 1	    1.03778	    0.00000	 225.0	 1	    1.08889	    0.98667;
	77	 1	 40.8	 -1.5	 0.0	 0.0	 1	    1.00000	    0.00000	 63.0	 1	    1.06349	    0.93651;
	78	 1	 0.0	 0.0	 0.0	 0.0	 1	    1.00000	    0.00000	 63.0	 1	    1.07937	    0.92063;
	79	 1	 0.0	 0.0	 0.0	 0.0	 1	    1.00000	    0.00000	 63.0	 1	    1.04762	    0.95238;
	80	 1	 34.6	 10.4	 0.0	 0.0	 1	    1.04666	    0.00000	 225.0	 1	    1.08889	    1.00444;
	81	 1	 34.6	 9.0	 0.0	 0.0	 1	    1.04666	    0.00000	 225.0	 1	    1.08889	    1.00444;
	82	 1	 11.6	 -0.2	 0.0	 0.0	 1	    1.00000	    0.00000	 63.0	 1	    1.06349	    0.93651;
	83	 1	 92.4	 64.5	 0.0	 0.0	 1	    1.04666	    0.00000	 225.0	 1	    1.08889	    1.00444;
	84	 1	 1.4	 -0.2	 0.0	 0.0	 1	    1.00000	    0.00000	 63.0	 1	    1.06349	    0.93651;
	85	 1	 1.8	 -2.0	 0.0	 0.0	 1	    1.00109	    0.00000	 63.0	 1	    1.06568	    0.93651;
	86	 1	 44.9	 3.7	 0.0	 0.0	 1	    1.02222	    0.00000	 90.0	 1	    1.06667	    0.97778;
	87	 1	 0.0	 0.0	 0.0	 0.0	 1	    1.01588	    0.00000	 63.0	 1	    1.07937	    0.95238;
	88	 1	 15.9	 2.0	 0.0	 0.0	 1	    1.00000	    0.00000	 63.0	 1	    1.06349	    0.93651;
	89	 1	 25.7	 0.4	 0.0	 0.0	 1	    1.02778	    0.00000	 90.0	 1	    1.07778	    0.97778;
	90	 1	 0.4	 -2.3	 0.0	 0.0	 1	    0.94444	    0.00000	 45.0	 1	    1.00000	    0.88889;
	91	 1	 0.0	 0.0	 0.0	 0.0	 1	    0.94444	    0.00000	 45.0	 1	    1.00000	    0.88889;
	92	 1	 31.6	 3.2	 0.0	 0.0	 1	    1.01587	    0.00000	 63.0	 1	    1.06349	    0.96825;
	93	 1	 2.2	 -2.2	 0.0	 0.0	 1	    0.94444	    0.00000	 45.0	 1	    1.00000	    0.88889;
	94	 1	 16.9	 -4.6	 0.0	 0.0	 1	    1.02222	    0.00000	 90.0	 1	    1.06667	    0.97778;
	95	 1	 53.2	 9.3	 0.0	 0.0	 1	    1.02222	    0.00000	 90.0	 1	    1.06667	    0.97778;
	96	 1	 1.2	 0.1	 0.0	 0.0	 1	    1.00000	    0.00000	 63.0	 1	    1.06349	    0.93651;
	97	 1	 55.0	 1.6	 0.0	 0.0	 1	    1.00000	    0.00000	 63.0	 1	    1.07937	    0.92063;
	98	 1	 7.7	 -2.1	 0.0	 0.0	 1	    1.01588	    0.00000	 63.0	 1	    1.07937	    0.95238;
	99	 1	 31.9	 5.0	 0.0	 0.0	 1	    1.01588	    0.00000	 63.0	 1	    1.07937	    0.95238;
	100	 1	 59.9	 8.9	 0.0	 0.0	 1	    1.00000	    0.00000	 63.0	 1	    1.06349	    0.93651;
	101	 1	 17.1	 0.1	 0.0	 0.0	 1	    1.00000	    0.00000	 63.0	 1	    1.06349	    0.93651;
	102	 2	 0.0	 0.0	 0.0	 0.0	 1	    1.01588	    0.00000	 63.0	 1	    1.07937	    0.95238;
	103	 1	 13.0	 -1.4	 0.0	 0.0	 1	    1.01588	    0.00000	 63.0	 1	    1.07937	    0.95238;
	104	 1	 0.0	 0.0	 0.0	 0.0	 1	    1.03778	    0.00000	 225.0	 1	    1.08889	    0.98667;
	105	 1	 37.7	 0.8	 0.0	 0.0	 1	    0.98889	    0.00000	 225.0	 1	    1.08889	    0.88889;
	106	 1	 56.3	 8.2	 0.0	 0.0	 1	    1.02222	    0.00000	 90.0	 1	    1.10000	    0.94444;
	107	 1	 107.4	 13.9	 0.0	 0.0	 1	    1.04666	    0.00000	 225.0	 1	    1.08444	    1.00889;
	108	 1	 12.7	 -3.9	 0.0	 0.0	 1	    1.02778	    0.00000	 90.0	 1	    1.07778	    0.97778;
	109	 1	 60.8	 4.1	 0.0	 0.0	 1	    1.00244	    0.00000	 63.0	 1	    1.06837	    0.93651;
	110	 1	 0.0	 0.0	 0.0	 0.0	 1	    1.01111	    0.00000	 225.0	 1	    1.08889	    0.93333;
	111	 1	 37.3	 -7.4	 0.0	 0.0	 1	    1.01587	    0.00000	 63.0	 1	    1.06349	    0.96825;
	112	 1	 0.0	 0.0	 0.0	 0.0	 1	    1.00000	    0.00000	 63.0	 1	    1.04762	    0.95238;
	113	 1	 0.0	 0.0	 0.0	 0.0	 1	    1.04666	    0.00000	 225.0	 1	    1.08889	    1.00444;
	114	 1	 12.9	 0.7	 0.0	 0.0	 1	    1.00000	    0.00000	 63.0	 1	    1.06349	    0.93651;
	115	 1	 0.0	 0.0	 0.0	 0.0	 1	    1.07895	    0.00000	 380.0	 1	    1.10526	    1.05263;
	116	 1	 0.0	 0.0	 0.0	 0.0	 1	    1.07895	    0.00000	 380.0	 1	    1.10526	    1.05263;
	117	 1	 12.8	 -2.1	 0.0	 0.0	 1	    1.01588	    0.00000	 63.0	 1	    1.07937	    0.95238;
	118	 1	 2.0	 0.8	 0.0	 0.0	 1	    1.02222	    0.00000	 90.0	 1	    1.06667	    0.97778;
	119	 1	 40.3	 3.7	 0.0	 0.0	 1	    1.00000	    0.00000	 63.0	 1	    1.06349	    0.93651;
	120	 1	 22.0	 -2.3	 0.0	 0.0	 1	    1.00000	    0.00000	 63.0	 1	    1.06349	    0.93651;
	121	 1	 22.1	 6.8	 0.0	 0.0	 1	    1.00000	    0.00000	 63.0	 1	    1.07937	    0.92063;
	122	 2	 0.0	 0.0	 0.0	 0.0	 1	    1.01588	    0.00000	 63.0	 1	    1.07937	    0.95238;
	123	 1	 11.0	 3.7	 0.0	 0.0	 1	    1.01588	    0.00000	 63.0	 1	    1.07937	    0.95238;
	124	 1	 8.9	 -2.2	 0.0	 0.0	 1	    1.02222	    0.00000	 90.0	 1	    1.06667	    0.97778;
	125	 1	 11.6	 -1.2	 0.0	 0.0	 1	    1.01588	    0.00000	 63.0	 1	    1.07937	    0.95238;
	126	 1	 0.4	 0.3	 0.0	 0.0	 1	    1.00000	    0.00000	 63.0	 1	    1.06349	    0.93651;
	127	 1	 10.7	 2.9	 0.0	 0.0	 1	    1.00000	    0.00000	 63.0	 1	    1.04762	    0.95238;
	128	 1	 13.4	 5.0	 0.0	 0.0	 1	    1.01587	    0.00000	 63.0	 1	    1.06349	    0.96825;
	129	 1	 17.0	 12.8	 0.0	 0.0	 1	    1.01587	    0.00000	 63.0	 1	    1.06349	    0.96825;
	130	 1	 0.0	 0.0	 0.0	 0.0	 1	    1.04666	    0.00000	 225.0	 1	    1.08444	    1.00889;
	131	 1	 110.7	 4.4	 0.0	 0.0	 1	    1.04666	    0.00000	 225.0	 1	    1.08444	    1.00889;
	132	 2	 9.4	 0.0	 0.0	 0.0	 1	    1.00000	    0.00000	 90.0	 1	    1.07778	    0.92222;
	133	 1	 2.5	 -0.1	 0.0	 0.0	 1	    1.00000	    0.00000	 63.0	 1	    1.04762	    0.95238;
	134	 1	 101.1	 28.6	 0.0	 0.0	 1	    1.04666	    0.00000	 225.0	 1	    1.08889	    1.00444;
	135	 1	 0.0	 0.0	 0.0	 0.0	 1	    1.04758	    0.00000	 225.0	 1	    1.09072	    1.00444;
	136	 1	 23.7	 0.6	 0.0	 0.0	 1	    1.02778	    0.00000	 90.0	 1	    1.07778	    0.97778;
	137	 2	 8.1	 -3.8	 0.0	 0.0	 1	    1.01587	    0.00000	 63.0	 1	    1.06349	    0.96825;
	138	 1	 0.0	 0.0	 0.0	 0.0	 1	    1.02333	    0.00000	 150.0	 1	    1.08000	    0.96667;
	139	 1	 15.7	 4.1	 0.0	 0.0	 1	    1.00000	    0.00000	 63.0	 1	    1.07937	    0.92063;
	140	 1	 0.0	 0.0	 0.0	 80.0	 1	    1.04445	    0.00000	 225.0	 1	    1.08889	    1.00000;
	141	 1	 0.0	 0.0	 0.0	 0.0	 1	    1.07895	    0.00000	 380.0	 1	    1.10526	    1.05263;
	142	 1	 12.5	 1.1	 0.0	 0.0	 1	    1.01588	    0.00000	 63.0	 1	    1.07937	    0.95238;
	143	 1	 0.0	 0.0	 0.0	 0.0	 1	    1.03778	    0.00000	 225.0	 1	    1.08889	    0.98667;
	144	 1	 8.9	 2.5	 0.0	 0.0	 1	    1.03333	    0.00000	 90.0	 1	    1.11111	    0.95556;
	145	 1	 24.0	 7.7	 0.0	 0.0	 1	    1.02889	    0.00000	 225.0	 1	    1.08889	    0.96889;
	146	 1	 0.0	 0.0	 0.0	 0.0	 1	    1.05263	    0.00000	 380.0	 1	    1.10526	    1.00000;
	147	 1	 28.0	 4.6	 0.0	 0.0	 1	    1.00000	    0.00000	 63.0	 1	    1.06349	    0.93651;
	148	 1	 6.6	 1.5	 0.0	 0.0	 1	    1.00000	    0.00000	 63.0	 1	    1.06349	    0.93651;
	149	 1	 15.9	 4.2	 0.0	 0.0	 1	    1.02222	    0.00000	 90.0	 1	    1.06667	    0.97778;
	150	 1	 48.4	 1.0	 0.0	 0.0	 1	    1.00000	    0.00000	 63.0	 1	    1.06349	    0.93651;
	151	 1	 0.0	 0.0	 0.0	 0.0	 1	    1.01587	    0.00000	 63.0	 1	    1.06349	    0.96825;
	152	 1	 42.6	 9.4	 0.0	 7.7	 1	    1.01587	    0.00000	 63.0	 1	    1.06349	    0.96825;
	153	 1	 26.9	 -4.9	 0.0	 0.0	 1	    1.00000	    0.00000	 63.0	 1	    1.06349	    0.93651;
	154	 1	 0.0	 0.0	 0.0	 0.0	 1	    1.01111	    0.00000	 225.0	 1	    1.08889	    0.93333;
	155	 2	 0.0	 0.0	 0.0	 0.0	 1	    1.00000	    0.00000	 63.0	 1	    1.07937	    0.92063;
	156	 1	 0.0	 0.0	 0.0	 0.0	 1	    1.01587	    0.00000	 63.0	 1	    1.06349	    0.96825;
	157	 1	 -1.4	 -2.3	 0.0	 0.0	 1	    0.94444	    0.00000	 45.0	 1	    1.00000	    0.88889;
	158	 2	 0.0	 0.0	 0.0	 0.0	 1	    0.94444	    0.00000	 45.0	 1	    1.00000	    0.88889;
	159	 1	 0.0	 0.0	 0.0	 0.0	 1	    1.00000	    0.00000	 63.0	 1	    1.06349	    0.93651;
	160	 1	 39.6	 5.7	 0.0	 0.0	 1	    0.98889	    0.00000	 225.0	 1	    1.08889	    0.88889;
	161	 1	 40.6	 10.8	 0.0	 0.0	 1	    0.98889	    0.00000	 225.0	 1	    1.08889	    0.88889;
	162	 1	 -0.1	 -1.2	 0.0	 0.0	 1	    1.02222	    0.00000	 90.0	 1	    1.06667	    0.97778;
	163	 1	 0.0	 0.0	 0.0	 0.0	 1	    1.01588	    0.00000	 63.0	 1	    1.07937	    0.95238;
	164	 1	 0.0	 0.0	 0.0	 0.0	 1	    1.01588	    0.00000	 63.0	 1	    1.07937	    0.95238;
	165	 1	 12.5	 6.7	 0.0	 0.0	 1	    0.97500	    0.00000	 20.0	 1	    1.15000	    0.80000;
	166	 1	 8.1	 -0.3	 0.0	 0.0	 1	    1.02222	    0.00000	 90.0	 1	    1.06667	    0.97778;
	167	 1	 8.3	 -2.0	 0.0	 0.0	 1	    1.02222	    0.00000	 90.0	 1	    1.06667	    0.97778;
	168	 1	 0.0	 0.0	 0.0	 0.0	 1	    1.04444	    0.00000	 225.0	 1	    1.08444	    1.00444;
	169	 1	 9.1	 -0.5	 0.0	 0.0	 1	    1.02222	    0.00000	 90.0	 1	    1.06667	    0.97778;
	170	 1	 78.8	 13.1	 0.0	 0.0	 1	    1.02778	    0.00000	 90.0	 1	    1.07778	    0.97778;
	171	 1	 26.3	 -0.9	 0.0	 30.0	 1	    1.02849	    0.00000	 90.0	 1	    1.07921	    0.97778;
	172	 1	 0.0	 0.0	 0.0	 0.0	 1	    1.04666	    0.00000	 225.0	 1	    1.08889	    1.00444;
	173	 1	 28.9	 8.2	 0.0	 0.0	 1	    1.01111	    0.00000	 90.0	 1	    1.08889	    0.93333;
	174	 1	 54.8	 9.7	 0.0	 0.0	 1	    1.03333	    0.00000	 90.0	 1	    1.11111	    0.95556;
	175	 1	 0.0	 0.0	 0.0	 0.0	 1	    1.00000	    0.00000	 63.0	 1	    1.07937	    0.92063;
	176	 2	 0.0	 0.0	 0.0	 0.0	 1	    1.00000	    0.00000	 150.0	 1	    1.10000	    0.90000;
	177	 1	 0.0	 0.0	 0.0	 0.0	 1	    1.04666	    0.00000	 225.0	 1	    1.08889	    1.00444;
	178	 1	 0.0	 0.0	 0.0	 0.0	 1	    1.04666	    0.00000	 225.0	 1	    1.08889	    1.00444;
	179	 1	 0.0	 0.0	 0.0	 0.0	 1	    1.00000	    0.00000	 63.0	 1	    1.04762	    0.95238;
	180	 1	 0.0	 0.0	 0.0	 0.0	 1	    1.04666	    0.00000	 225.0	 1	    1.08889	    1.00444;
	181	 1	 14.2	 -5.0	 0.0	 0.0	 1	    1.00000	    0.00000	 63.0	 1	    1.07937	    0.92063;
	182	 1	 15.0	 4.1	 0.0	 0.0	 1	    1.00000	    0.00000	 63.0	 1	    1.06349	    0.93651;
	183	 1	 6.2	 -0.7	 0.0	 0.0	 1	    1.01588	    0.00000	 63.0	 1	    1.07937	    0.95238;
	184	 1	 4.0	 1.4	 0.0	 0.0	 1	    1.02778	    0.00000	 90.0	 1	    1.07778	    0.97778;
	185	 1	 28.1	 2.7	 0.0	 0.0	 1	    1.01588	    0.00000	 63.0	 1	    1.07937	    0.95238;
	186	 1	 0.4	 1.3	 0.0	 0.0	 1	    1.02222	    0.00000	 90.0	 1	    1.06667	    0.97778;
	187	 2	 0.0	 0.0	 0.0	 0.0	 1	    1.00000	    0.00000	 63.0	 1	    1.07937	    0.92063;
	188	 1	 0.0	 0.0	 0.0	 0.0	 1	    1.01137	    0.00000	 63.0	 1	    1.10211	    0.92063;
	189	 1	 16.4	 2.1	 0.0	 0.0	 1	    1.00000	    0.00000	 63.0	 1	    1.07937	    0.92063;
	190	 2	 0.0	 0.0	 0.0	 0.0	 1	    0.94444	    0.00000	 45.0	 1	    1.00000	    0.88889;
	191	 1	 14.3	 -1.2	 0.0	 0.0	 1	    1.02222	    0.00000	 90.0	 1	    1.06667	    0.97778;
	192	 1	 7.2	 -2.0	 0.0	 0.0	 1	    1.00000	    0.00000	 63.0	 1	    1.07937	    0.92063;
	193	 1	 -0.3	 0.8	 0.0	 0.0	 1	    1.04666	    0.00000	 225.0	 1	    1.08889	    1.00444;
	194	 2	 0.7	 -2.2	 0.0	 0.0	 1	    1.00000	    0.00000	 63.0	 1	    1.07937	    0.92063;
	195	 1	 0.0	 0.0	 0.0	 0.0	 1	    1.01392	    0.00000	 63.0	 1	    1.07545	    0.95238;
	196	 1	 0.0	 0.0	 0.0	 0.0	 1	    1.01392	    0.00000	 63.0	 1	    1.07546	    0.95238;
	197	 1	 27.3	 0.8	 0.0	 15.0	 1	    1.00000	    0.00000	 63.0	 1	    1.07937	    0.92063;
	198	 1	 10.0	 -0.7	 0.0	 0.0	 1	    1.00000	    0.00000	 63.0	 1	    1.07937	    0.92063;
	199	 1	 11.4	 1.5	 0.0	 0.0	 1	    1.02222	    0.00000	 90.0	 1	    1.06667	    0.97778;
	200	 1	 0.0	 0.0	 0.0	 0.0	 1	    1.04445	    0.00000	 225.0	 1	    1.08889	    1.00000;
...
];

%% generator data
%	bus	Pg	Qg	Qmax	Qmin	Vg	mBase	status	Pmax	Pmin
mpc.gen = [
	4	 0.0	 0.0	 0.0	 0.0	 1.0111115	 100.0	 0	 12.0	 0.0; % NG
	4	 0.0	 0.0	 0.0	 0.0	 1.0111115	 100.0	 0	 10.0	 0.0; % NG
	5	 0.0	 0.0	 0.0	 0.0	 1.0079355	 100.0	 0	 9.1	 0.0; % NG
	11	 14.0	 0.0	 0.0	 0.0	 1.000001	 100.0	 1	 28.0	 0.0; % PEL
	11	 0.0	 0.0	 0.0	 0.0	 1.000001	 100.0	 0	 18.0	 0.0; % PEL
	17	 0.0	 0.0	 0.0	 0.0	 1.022224	 100.0	 0	 8.2	 0.0; % NG
	19	 0.0	 0.0	 0.0	 0.0	 0.999999	 100.0	 0	 1.2	 0.0; % PEL
	22	 0.0	 0.0	 0.0	 0.0	 1.0158755	 100.0	 0	 10.0	 0.0; % NG
	24	 0.0	 0.0	 0.0	 0.0	 1.033333	 100.0	 0	 16.1	 0.0; % NG
	24	 0.0	 0.0	 0.0	 0.0	 1.033333	 100.0	 0	 35.5	 0.0; % NG
	25	 18.0	 0.0	 0.0	 0.0	 1.022222	 100.0	 1	 36.0	 0.0; % PEL
	25	 0.0	 0.0	 0.0	 0.0	 1.022222	 100.0	 0	 27.2	 0.0; % COW
	40	 0.0	 0.0	 0.0	 0.0	 1.027779	 100.0	 0	 8.0	 0.0; % NG
	47	 8.0	 -0.25	 9.5	 -10.0	 0.999999	 100.0	 1	 16.0	 0.0; % NG
	47	 8.0	 -0.25	 9.5	 -10.0	 0.999999	 100.0	 1	 16.0	 0.0; % PEL
	48	 0.0	 0.0	 0.0	 0.0	 1.000001	 100.0	 0	 23.0	 0.0; % NG
	48	 0.0	 0.0	 0.0	 0.0	 1.000001	 100.0	 0	 24.0	 0.0; % PEL
	57	 6.5	 0.95	 1.0	 0.9	 1.0000025	 100.0	 1	 13.0	 0.0; % NG
	64	 0.0	 0.0	 0.0	 0.0	 0.9888895	 100.0	 0	 24.0	 0.0; % PEL
	64	 0.0	 0.0	 0.0	 0.0	 0.9888895	 100.0	 0	 27.6	 0.0; % NG
	69	 0.0	 0.0	 0.0	 0.0	 1.0079355	 100.0	 0	 30.04	 0.0; % NG
	70	 0.0	 0.0	 0.0	 0.0	 1.0158755	 100.0	 0	 23.0	 0.0; % PEL
	85	 3.34	 0.0	 0.0	 0.0	 1.001094	 100.0	 1	 6.68	 0.0; % NG
	86	 0.0	 0.0	 0.0	 0.0	 1.022224	 100.0	 0	 9.2	 0.0; % NG
	102	 23.0	 6.0	 21.0	 -9.0	 1.0158755	 100.0	 1	 46.0	 0.0; % NG
	122	 6.0	 1.5	 5.0	 -2.0	 1.0158755	 100.0	 1	 12.0	 0.0; % COW
	124	 0.0	 0.0	 0.0	 0.0	 1.022224	 100.0	 0	 9.0	 0.0; % NG
	125	 13.0	 0.0	 0.0	 0.0	 1.0158755	 100.0	 1	 26.0	 0.0; % NG
	125	 0.0	 0.0	 0.0	 0.0	 1.0158755	 100.0	 0	 12.0	 0.0; % NG
	132	 8.5	 0.0	 3.0	 -3.0	 1.000001	 100.0	 1	 17.0	 0.0; % PEL
	132	 0.0	 1.0	 1.0	 -1.0	 1.000001	 100.0	 0	 4.0	 0.0; % NG
	132	 0.0	 1.67	 3.0	 -3.0	 1.000001	 100.0	 0	 14.0	 0.0; % NG
	132	 0.0	 1.67	 3.0	 -3.0	 1.000001	 100.0	 0	 14.0	 0.0; % PEL
	137	 0.0	 0.25	 0.8	 -0.8	 1.015872	 100.0	 0	 18.0	 0.0; % PEL
	137	 9.0	 0.0	 0.8	 -0.8	 1.015872	 100.0	 1	 18.0	 0.0; % PEL
	155	 0.0	 1.76	 1.76	 -1.76	 1.0000025	 100.0	 0	 5.3	 0.0; % NG
	158	 8.95	 -1.5	 10.0	 -13.0	 0.9444445	 100.0	 1	 17.9	 0.0; % NG
	158	 8.95	 -1.5	 10.0	 -13.0	 0.9444445	 100.0	 1	 17.9	 0.0; % NG
	176	 0.0	 2.01	 10.0	 -4.0	 1.0	 100.0	 0	 30.0	 0.0; % PEL
	187	 0.0	 2.28	 8.0	 -8.0	 1.0000025	 100.0	 0	 11.0	 0.0; % NG
	187	 0.0	 2.0	 2.0	 -2.0	 1.0000025	 100.0	 0	 11.0	 0.0; % NG
	190	 0.0	 -0.23	 14.0	 -14.0	 0.9444445	 100.0	 0	 30.0	 0.0; % COW
	192	 11.75	 0.0	 0.0	 0.0	 1.0000025	 100.0	 1	 23.5	 0.0; % PEL
	194	 7.5	 0.95	 1.0	 0.9	 1.0000025	 100.0	 1	 15.0	 0.0; % NG
	194	 7.5	 0.95	 1.0	 0.9	 1.0000025	 100.0	 1	 15.0	 0.0; % PEL
	217	 0.0	 0.0	 0.0	 0.0	 1.022224	 100.0	 0	 11.94	 0.0; % NG
	224	 0.0	 1.99	 2.0	 0.0	 1.0	 100.0	 0	 6.0	 0.0; % PEL
	227	 0.0	 0.0	 0.0	 0.0	 1.0079355	 100.0	 0	 7.5	 0.0; % NG
	236	 0.0	 0.0	 0.0	 0.0	 1.000001	 100.0	 0	 33.5	 0.0; % NG
	236	 0.0	 0.0	 0.0	 0.0	 1.000001	 100.0	 0	 24.3	 0.0; % PEL
	238	 0.0	 0.0	 0.0	 0.0	 1.022224	 100.0	 0	 8.0	 0.0; % COW
	238	 0.0	 0.0	 0.0	 0.0	 1.022224	 100.0	 0	 36.0	 0.0; % NG
	246	 0.0	 0.0	 2.0	 0.0	 0.999999	 100.0	 0	 1.0	 0.0; % PEL
	246	 0.0	 -0.18	 10.0	 -10.0	 0.999999	 100.0	 0	 31.0	 0.0; % COW
	246	 0.0	 -0.18	 10.0	 -10.0	 0.999999	 100.0	 0	 31.0	 0.0; % PEL
	246	 0.0	 -0.18	 10.0	 -10.0	 0.999999	 100.0	 0	 31.0	 0.0; % NG
	256	 13.0	 0.0	 10.0	 -10.0	 1.0000025	 100.0	 1	 26.0	 0.0; % PEL
	256	 13.0	 0.0	 10.0	 -10.0	 1.0000025	 100.0	 1	 26.0	 0.0; % NG
	258	 15.0	 0.95	 1.0	 0.9	 1.000731	 100.0	 1	 30.0	 0.0; % PEL
	261	 0.0	 2.0	 4.0	 -4.0	 1.0000025	 100.0	 0	 8.0	 0.0; % NG
	269	 0.0	 0.0	 0.0	 0.0	 1.0000025	 100.0	 0	 12.6	 0.0; % NG
	282	 0.0	 -0.19	 6.1	 -6.2	 0.999999	 100.0	 0	 11.6	 0.0; % NG
	295	 0.0	 0.0	 0.0	 0.0	 0.9888895	 100.0	 0	 25.3	 0.0; % PEL
	296	 6.0	 0.0	 0.0	 0.0	 1.0158755	 100.0	 1	 12.0	 0.0; % NG
	305	 7.5	 0.0	 9.0	 -9.0	 1.003694	 100.0	 1	 15.0	 0.0; % PEL
	312	 12.9	 0.0	 0.0	 0.0	 1.000001	 100.0	 1	 25.8	 0.0; % NG
	312	 24.8	 0.0	 0.0	 0.0	 1.000001	 100.0	 1	 49.6	 0.0; % PEL
	317	 0.0	 0.0	 0.0	 0.0	 1.0000025	 100.0	 0	 0.0	 -7.0; % SYNC
	317	 0.0	 0.0	 0.0	 0.0	 1.0000025	 100.0	 0	 0.0	 -7.0; % SYNC
	319	 0.0	 0.1	 0.1	 -0.1	 1.0000025	 100.0	 0	 10.8	 0.0; % NG
	325	 0.0	 -0.04	 4.0	 -4.0	 0.999999	 100.0	 0	 11.0	 0.0; % NG
	332	 0.0	 0.68	 13.0	 -9.0	 1.015872	 100.0	 0	 25.0	 0.0; % NG
	333	 0.0	 4.58	 13.0	 -9.0	 1.0233335	 100.0	 0	 25.0	 0.0; % PEL
	336	 6.5	 -0.5	 5.0	 -6.0	 1.0000025	 100.0	 1	 13.0	 0.0; % COW
	338	 0.0	 1.58	 10.0	 -10.0	 1.0000025	 100.0	 0	 21.0	 0.0; % NG
	338	 0.0	 0.1	 0.1	 -0.1	 1.0000025	 100.0	 0	 2.0	 0.0; % PEL
	345	 0.0	 0.0	 0.0	 0.0	 1.027779	 100.0	 0	 2.3	 0.0; % PEL
	345	 9.75	 0.0	 0.0	 0.0	 1.027779	 100.0	 1	 19.5	 0.0; % PEL
	348	 0.0	 0.0	 0.0	 0.0	 1.022222	 100.0	 0	 22.0	 0.0; % PEL
	357	 0.0	 0.0	 0.0	 0.0	 1.0158755	 100.0	 0	 12.0	 0.0; % PEL
	357	 0.0	 0.0	 0.0	 0.0	 1.0158755	 100.0	 0	 12.0	 0.0; % NG
	364	 65.0	 16.5	 59.0	 -26.0	 1.046665	 100.0	 1	 130.0	 0.0; % NG
	391	 0.0	 0.0	 0.0	 0.0	 1.0000025	 100.0	 0	 2.7	 0.0; % PEL
	409	 0.0	 0.73	 5.0	 -5.0	 1.015872	 100.0	 0	 18.0	 0.0; % NG
	411	 0.0	 0.0	 0.0	 0.0	 1.022224	 100.0	 0	 10.0	 0.0; % NG
	411	 0.0	 0.0	 0.0	 0.0	 1.022224	 100.0	 0	 11.5	 0.0; % NG
	431	 6.0	 0.0	 0.0	 0.0	 1.0000025	 100.0	 1	 12.0	 0.0; % PEL
	440	 0.0	 1.45	 10.96	 -11.99	 1.0000025	 100.0	 0	 34.25	 0.0; % PEL
	447	 12.5	 -0.5	 8.0	 -9.0	 1.015872	 100.0	 1	 25.0	 0.0; % PEL
	462	 0.0	 0.0	 0.0	 0.0	 1.0079355	 100.0	 0	 2.4	 0.0; % PEL
	462	 0.0	 0.0	 0.0	 0.0	 1.0079355	 100.0	 0	 16.0	 0.0; % PEL
	464	 14.0	 1.5	 6.0	 -3.0	 0.984405	 100.0	 1	 27.0	 1.0; % NG
	464	 14.0	 1.5	 6.0	 -3.0	 0.984405	 100.0	 1	 27.0	 1.0; % PEL
	466	 0.0	 0.0	 19.0	 -10.0	 1.0079355	 100.0	 0	 48.0	 1.0; % PEL
	470	 0.0	 -0.57	 6.0	 -6.0	 0.999999	 100.0	 0	 10.0	 0.0; % NG
	470	 0.0	 -3.08	 5.4	 -5.4	 0.999999	 100.0	 0	 9.0	 0.0; % NG
	479	 0.0	 -0.09	 17.0	 -16.0	 0.999999	 100.0	 0	 27.0	 0.0; % PEL
	479	 0.0	 -0.09	 17.0	 -16.0	 0.999999	 100.0	 0	 27.0	 0.0; % NG
	479	 0.0	 -0.09	 17.0	 -16.0	 0.999999	 100.0	 0	 27.0	 0.0; % COW
	491	 0.0	 -0.75	 8.0	 -17.0	 1.033334	 100.0	 0	 23.4	 0.0; % NG
	508	 0.0	 1.72	 2.0	 -2.0	 0.999999	 100.0	 0	 4.0	 0.0; % NG
	519	 0.0	 0.0	 0.0	 0.0	 1.015874	 100.0	 0	 10.0	 0.0; % COW
	520	 0.0	 0.0	 0.0	 0.0	 1.022224	 100.0	 0	 12.0	 0.0; % COW
	530	 4.0	 0.0	 4.8	 -4.8	 0.999999	 100.0	 1	 8.0	 0.0; % COW
	530	 4.0	 0.0	 4.8	 -4.8	 0.999999	 100.0	 1	 8.0	 0.0; % NG
	530	 4.0	 0.0	 4.8	 -4.8	 0.999999	 100.0	 1	 8.0	 0.0; % PEL
	537	 0.0	 0.0	 0.0	 0.0	 1.022224	 100.0	 0	 12.0	 0.0; % COW
	537	 12.0	 0.0	 0.0	 0.0	 1.022224	 100.0	 1	 24.0	 0.0; % PEL
	546	 4.5	 1.95	 2.0	 1.9	 1.0000025	 100.0	 1	 9.0	 0.0; % NG
	548	 0.0	 2.0	 2.0	 0.0	 1.0000025	 100.0	 0	 12.0	 0.0; % COW
	570	 0.0	 0.0	 0.0	 0.0	 1.0158755	 100.0	 0	 12.0	 0.0; % NG
	570	 0.0	 0.0	 0.0	 0.0	 1.0158755	 100.0	 0	 30.0	 0.0; % NG
	570	 0.0	 0.0	 0.0	 0.0	 1.0158755	 100.0	 0	 11.5	 0.0; % NG
	583	 8.0	 1.5	 7.0	 -4.0	 1.0000005	 100.0	 1	 16.0	 0.0; % NG
	585	 0.0	 0.0	 0.0	 0.0	 1.0158755	 100.0	 0	 9.0	 0.0; % NG
	586	 0.0	 4.61	 5.7	 -5.7	 0.999999	 100.0	 0	 9.5	 0.0; % NG
	589	 0.0	 0.1	 0.1	 -0.1	 1.000001	 100.0	 0	 1.0	 0.0; % PEL
	593	 0.0	 1.34	 10.0	 -10.0	 1.0000025	 100.0	 0	 21.0	 0.0; % PEL
	600	 0.0	 0.37	 1.0	 -1.0	 1.015872	 100.0	 0	 6.1	 0.0; % NG
	610	 22.5	 0.0	 45.0	 -45.0	 0.975	 100.0	 1	 45.0	 0.0; % NG
	610	 0.0	 -0.16	 45.0	 -45.0	 0.975	 100.0	 0	 45.0	 0.0; % NG
	612	 0.0	 0.0	 0.0	 0.0	 1.022224	 100.0	 0	 12.0	 0.0; % COW
	612	 0.0	 0.0	 0.0	 0.0	 1.022224	 100.0	 0	 12.0	 0.0; % NG
	612	 0.0	 0.0	 0.0	 0.0	 1.022224	 100.0	 0	 12.0	 0.0; % NG
	613	 0.0	 0.0	 0.0	 0.0	 1.0000005	 100.0	 0	 35.0	 0.0; % PEL
	613	 0.0	 0.0	 0.0	 0.0	 1.0000005	 100.0	 0	 11.5	 0.0; % NG
	624	 0.0	 0.0	 8.3	 -8.3	 1.0111115	 100.0	 1	 8.3	 -8.3; % NG
	633	 0.0	 -4.7	 4.0	 -4.7	 0.999999	 100.0	 0	 7.3	 0.0; % NG
	636	 0.0	 0.5	 7.0	 0.0	 1.015872	 100.0	 0	 15.0	 0.0; % PEL
	636	 7.5	 3.5	 7.0	 0.0	 1.015872	 100.0	 1	 15.0	 0.0; % PEL
	641	 119.5	 2.5	 80.0	 -75.0	 1.079965	 100.0	 1	 239.0	 0.0; % NG
	652	 0.0	 1.32	 7.0	 0.0	 1.0000025	 100.0	 0	 7.0	 0.0; % COW
	670	 6.0	 0.0	 0.0	 0.0	 1.022224	 100.0	 1	 12.0	 0.0; % COW
	670	 6.0	 0.0	 0.0	 0.0	 1.022224	 100.0	 1	 12.0	 0.0; % COW
	671	 0.0	 0.0	 0.0	 0.0	 1.027779	 100.0	 0	 7.5	 0.0; % NG
	671	 12.0	 0.0	 0.0	 0.0	 1.027779	 100.0	 1	 24.0	 0.0; % PEL
	679	 0.0	 0.0	 0.0	 0.0	 1.022224	 100.0	 0	 6.6	 0.0; % NG
	680	 0.0	 0.0	 0.0	 0.0	 1.022374	 100.0	 0	 12.0	 0.0; % COW
	684	 4.5	 0.5	 6.0	 -5.0	 0.9444445	 100.0	 1	 9.0	 0.0; % NG
	684	 4.5	 0.5	 6.0	 -5.0	 0.9444445	 100.0	 1	 9.0	 0.0; % NG
	684	 0.0	 1.87	 8.0	 -5.0	 0.9444445	 100.0	 0	 11.0	 0.0; % PEL
	684	 5.5	 1.5	 8.0	 -5.0	 0.9444445	 100.0	 1	 11.0	 0.0; % NG
	695	 0.0	 0.0	 0.0	 0.0	 1.022222	 100.0	 0	 32.35	 0.0; % NG
	695	 0.0	 0.0	 0.0	 0.0	 1.022222	 100.0	 0	 12.0	 0.0; % NG
	695	 0.0	 0.0	 0.0	 0.0	 1.022222	 100.0	 0	 21.0	 0.0; % NG
	699	 18.5	 -1.0	 15.0	 -17.0	 0.975	 100.0	 1	 37.0	 0.0; % NG
	699	 18.5	 -1.0	 15.0	 -17.0	 0.975	 100.0	 1	 37.0	 0.0; % NG
	698	 18.5	 0.0	 15.0	 -15.0	 0.975	 100.0	 1	 37.0	 0.0; % PEL
	698	 18.5	 0.0	 15.0	 -15.0	 0.975	 100.0	 1	 37.0	 0.0; % PEL
	697	 18.5	 -1.0	 15.0	 -17.0	 0.975	 100.0	 1	 37.0	 0.0; % NG
	697	 18.5	 -1.0	 15.0	 -17.0	 0.975	 100.0	 1	 37.0	 0.0; % NG
	705	 0.0	 2.0	 2.0	 -2.0	 0.9444445	 100.0	 0	 4.0	 0.0; % NG
	705	 0.0	 2.5	 2.5	 -2.5	 0.9444445	 100.0	 0	 4.0	 0.0; % NG
	705	 2.85	 0.0	 3.0	 -3.0	 0.9444445	 100.0	 1	 5.7	 0.0; % COW
	705	 0.0	 0.84	 6.0	 -5.0	 0.9444445	 100.0	 0	 8.5	 0.0; % NG
	732	 0.0	 0.0	 0.0	 0.0	 1.022224	 100.0	 0	 19.5	 0.0; % NG
	733	 19.5	 0.0	 18.0	 -18.0	 0.999999	 100.0	 1	 39.0	 0.0; % NG
	734	 0.0	 0.0	 0.0	 0.0	 1.0158755	 100.0	 0	 11.5	 0.0; % NG
	734	 0.0	 0.0	 0.0	 0.0	 1.0158755	 100.0	 0	 32.0	 0.0; % PEL
	736	 0.0	 0.0	 0.0	 0.0	 1.000001	 100.0	 0	 12.0	 0.0; % NG
	736	 16.0	 0.0	 0.0	 0.0	 1.000001	 100.0	 1	 32.0	 0.0; % PEL
	737	 0.0	 0.1	 0.1	 -0.1	 1.0000025	 100.0	 0	 5.0	 0.0; % PEL
	744	 0.0	 3.85	 4.22	 -3.7	 0.999999	 100.0	 0	 6.7	 0.0; % PEL
	744	 0.0	 4.02	 4.39	 -3.0	 0.999999	 100.0	 0	 5.6	 0.0; % PEL
	745	 13.3	 0.0	 15.0	 -15.0	 0.999999	 100.0	 1	 26.6	 0.0; % PEL
	746	 4.0	 0.0	 2.0	 -2.0	 1.022224	 100.0	 1	 7.0	 1.0; % PEL
	751	 0.0	 -0.18	 3.0	 -3.0	 0.999999	 100.0	 0	 5.0	 -5.0; % NG
	758	 0.0	 -2.68	 8.0	 -8.0	 0.9888895	 100.0	 0	 23.5	 0.0; % PEL
	760	 0.0	 0.0	 0.0	 0.0	 1.000709	 100.0	 0	 6.0	 0.0; % NG
	761	 0.0	 0.0	 0.0	 0.0	 0.999999	 100.0	 0	 6.0	 0.0; % PEL
	760	 18.75	 0.79	 10.0	 -8.42	 1.000709	 100.0	 1	 37.5	 0.0; % NG
	761	 18.75	 2.0	 10.0	 -6.0	 0.999999	 100.0	 1	 37.5	 0.0; % COW
	762	 0.0	 0.06	 0.06	 -0.06	 0.825	 100.0	 0	 0.6	 0.0; % PEL
	762	 0.0	 1.73	 2.61	 -2.61	 0.825	 100.0	 0	 26.1	 0.0; % PEL
	762	 0.0	 0.16	 0.16	 -0.16	 0.825	 100.0	 0	 1.6	 0.0; % PEL
	762	 0.0	 0.11	 0.11	 -0.11	 0.825	 100.0	 0	 1.1	 0.0; % NG
	766	 0.0	 0.0	 0.0	 0.0	 1.0158755	 100.0	 0	 37.5	 0.0; % NG
	766	 0.0	 0.0	 0.0	 0.0	 1.0158755	 100.0	 0	 34.0	 0.0; % NG
	786	 0.0	 -0.79	 26.0	 -26.0	 0.975	 100.0	 0	 8.0	 0.0; % NG
	786	 0.0	 -0.79	 26.0	 -26.0	 0.975	 100.0	 0	 15.0	 0.0; % NG
	787	 0.0	 -0.71	 26.0	 -26.0	 0.975	 100.0	 0	 19.0	 0.0; % PEL
	801	 15.5	 -1.0	 15.0	 -17.0	 0.975	 100.0	 1	 31.0	 0.0; % PEL
	801	 15.5	 -1.0	 15.0	 -17.0	 0.975	 100.0	 1	 31.0	 0.0; % COW
	802	 15.5	 -1.0	 15.0	 -17.0	 0.975	 100.0	 1	 31.0	 0.0; % PEL
	802	 15.5	 -1.0	 15.0	 -17.0	 0.975	 100.0	 1	 31.0	 0.0; % PEL
	803	 15.5	 -1.0	 15.0	 -17.0	 0.975	 100.0	 1	 31.0	 0.0; % PEL
	803	 15.5	 -1.0	 15.0	 -17.0	 0.975	 100.0	 1	 31.0	 0.0; % NG
	807	 20.4	 0.0	 0.0	 0.0	 1.0000025	 100.0	 1	 40.8	 0.0; % NG
	815	 16.5	 -1.5	 6.0	 -9.0	 1.015872	 100.0	 1	 32.0	 1.0; % PEL
	815	 0.0	 0.0	 6.0	 -9.0	 1.015872	 100.0	 0	 32.0	 1.0; % NG
	816	 16.5	 -1.5	 6.0	 -9.0	 1.015872	 100.0	 1	 32.0	 1.0; % PEL
	816	 16.5	 -1.5	 6.0	 -9.0	 1.015872	 100.0	 1	 32.0	 1.0; % NG
	816	 16.5	 -1.5	 6.0	 -9.0	 1.015872	 100.0	 1	 32.0	 1.0; % NG
	816	 16.5	 -1.5	 6.0	 -9.0	 1.015872	 100.0	 1	 32.0	 1.0; % PEL
	826	 0.0	 1.48	 3.0	 -3.0	 1.0000025	 100.0	 0	 13.0	 0.0; % NG
	826	 0.0	 3.0	 3.0	 -3.0	 1.0000025	 100.0	 0	 7.0	 0.0; % COW
	829	 0.0	 0.0	 0.0	 0.0	 1.022222	 100.0	 0	 2.4	 0.0; % PEL
	830	 13.5	 0.0	 10.0	 -10.0	 1.0000025	 100.0	 1	 27.0	 0.0; % NG
	831	 0.0	 -0.33	 10.0	 -10.0	 0.9444445	 100.0	 0	 20.0	 0.0; % NG
	833	 0.0	 -0.46	 3.14	 -3.43	 1.0000025	 100.0	 0	 9.8	 0.0; % NG
...
];

%% generator cost data
%	2	startup	shutdown	n	c(n-1)	...	c0
mpc.gencost = [
2	0.0	0.0	3	0.2	53.504391	0.000000;	%	NG
2	0.0	0.0	3	0.2	32.508375	0.000000;	%	NG
2	0.0	0.0	3	0.2	10.716435	0.000000;	%	NG
2	0.0	0.0	3	0.2	129.027919	0.000000;	%	PEL
2	0.0	0.0	3	0.2	100.545331	0.000000;	%	PEL
2	0.0	0.0	3	0.2	15.889083	0.000000;	%	NG
2	0.0	0.0	3	0.2	118.691085	0.000000;	%	PEL
2	0.0	0.0	3	0.2	39.318963	0.000000;	%	NG
2	0.0	0.0	3	0.2	35.709311	0.000000;	%	NG
2	0.0	0.0	3	0.2	24.770561	0.000000;	%	NG
2	0.0	0.0	3	0.2	120.007581	0.000000;	%	PEL
2	0.0	0.0	3	0.2	27.418090	0.000000;	%	COW
2	0.0	0.0	3	0.2	27.833133	0.000000;	%	NG
2	0.0	0.0	3	0.2	42.352851	0.000000;	%	NG
2	0.0	0.0	3	0.2	129.030581	0.000000;	%	PEL
2	0.0	0.0	3	0.2	26.841169	0.000000;	%	NG
2	0.0	0.0	3	0.2	99.746003	0.000000;	%	PEL
2	0.0	0.0	3	0.2	30.494413	0.000000;	%	NG
2	0.0	0.0	3	0.2	116.664437	0.000000;	%	PEL
2	0.0	0.0	3	0.2	14.414846	0.000000;	%	NG
2	0.0	0.0	3	0.2	35.140106	0.000000;	%	NG
2	0.0	0.0	3	0.2	134.972244	0.000000;	%	PEL
2	0.0	0.0	3	0.2	49.165583	0.000000;	%	NG
2	0.0	0.0	3	0.2	27.952313	0.000000;	%	NG
2	0.0	0.0	3	0.2	59.296565	0.000000;	%	NG
2	0.0	0.0	3	0.2	29.998005	0.000000;	%	COW
2	0.0	0.0	3	0.2	42.206624	0.000000;	%	NG
2	0.0	0.0	3	0.2	39.395964	0.000000;	%	NG
2	0.0	0.0	3	0.2	54.077343	0.000000;	%	NG
2	0.0	0.0	3	0.2	107.061703	0.000000;	%	PEL
2	0.0	0.0	3	0.2	39.369040	0.000000;	%	NG
2	0.0	0.0	3	0.2	6.321676	0.000000;	%	NG
2	0.0	0.0	3	0.2	108.466109	0.000000;	%	PEL
2	0.0	0.0	3	0.2	91.897742	0.000000;	%	PEL
2	0.0	0.0	3	0.2	115.294977	0.000000;	%	PEL
2	0.0	0.0	3	0.2	11.152294	0.000000;	%	NG
2	0.0	0.0	3	0.2	14.388369	0.000000;	%	NG
2	0.0	0.0	3	0.2	25.546811	0.000000;	%	NG
2	0.0	0.0	3	0.2	121.131138	0.000000;	%	PEL
2	0.0	0.0	3	0.2	51.514740	0.000000;	%	NG
2	0.0	0.0	3	0.2	26.490798	0.000000;	%	NG
2	0.0	0.0	3	0.2	14.619751	0.000000;	%	COW
2	0.0	0.0	3	0.2	117.413179	0.000000;	%	PEL
2	0.0	0.0	3	0.2	18.779921	0.000000;	%	NG
2	0.0	0.0	3	0.2	111.726624	0.000000;	%	PEL
2	0.0	0.0	3	0.2	42.100245	0.000000;	%	NG
2	0.0	0.0	3	0.2	105.006697	0.000000;	%	PEL
2	0.0	0.0	3	0.2	39.012698	0.000000;	%	NG
2	0.0	0.0	3	0.2	27.731281	0.000000;	%	NG
2	0.0	0.0	3	0.2	121.021000	0.000000;	%	PEL
2	0.0	0.0	3	0.2	28.895876	0.000000;	%	COW
2	0.0	0.0	3	0.2	45.057743	0.000000;	%	NG
2	0.0	0.0	3	0.2	108.815713	0.000000;	%	PEL
2	0.0	0.0	3	0.2	9.096664	0.000000;	%	COW
2	0.0	0.0	3	0.2	97.228958	0.000000;	%	PEL
2	0.0	0.0	3	0.2	44.720301	0.000000;	%	NG
2	0.0	0.0	3	0.2	103.635347	0.000000;	%	PEL
2	0.0	0.0	3	0.2	25.164995	0.000000;	%	NG
2	0.0	0.0	3	0.2	114.728595	0.000000;	%	PEL
2	0.0	0.0	3	0.2	31.928571	0.000000;	%	NG
2	0.0	0.0	3	0.2	21.762080	0.000000;	%	NG
2	0.0	0.0	3	0.2	41.989407	0.000000;	%	NG
2	0.0	0.0	3	0.2	105.621264	0.000000;	%	PEL
2	0.0	0.0	3	0.2	40.460280	0.000000;	%	NG
2	0.0	0.0	3	0.2	106.108740	0.000000;	%	PEL
2	0.0	0.0	3	0.2	21.045106	0.000000;	%	NG
2	0.0	0.0	3	0.2	133.217831	0.000000;	%	PEL
	2	 0.0	 0.0	 3	   0.000000	   0.000000	   0.000000; % SYNC
	2	 0.0	 0.0	 3	   0.000000	   0.000000	   0.000000; % SYNC
2	0.0	0.0	3	0.2	38.122923	0.000000;	%	NG
2	0.0	0.0	3	0.2	52.834338	0.000000;	%	NG
2	0.0	0.0	3	0.2	39.008753	0.000000;	%	NG
2	0.0	0.0	3	0.2	108.424626	0.000000;	%	PEL
2	0.0	0.0	3	0.2	30.149604	0.000000;	%	COW
2	0.0	0.0	3	0.2	17.433095	0.000000;	%	NG
2	0.0	0.0	3	0.2	88.854729	0.000000;	%	PEL
2	0.0	0.0	3	0.2	121.482492	0.000000;	%	PEL
2	0.0	0.0	3	0.2	103.558003	0.000000;	%	PEL
2	0.0	0.0	3	0.2	113.192972	0.000000;	%	PEL
2	0.0	0.0	3	0.2	120.621395	0.000000;	%	PEL
2	0.0	0.0	3	0.2	34.202184	0.000000;	%	NG
2	0.0	0.0	3	0.2	28.618145	0.000000;	%	NG
2	0.0	0.0	3	0.2	104.658892	0.000000;	%	PEL
2	0.0	0.0	3	0.2	20.939916	0.000000;	%	NG
2	0.0	0.0	3	0.2	32.820999	0.000000;	%	NG
2	0.0	0.0	3	0.2	28.994129	0.000000;	%	NG
2	0.0	0.0	3	0.2	99.289866	0.000000;	%	PEL
2	0.0	0.0	3	0.2	111.795836	0.000000;	%	PEL
2	0.0	0.0	3	0.2	92.169237	0.000000;	%	PEL
2	0.0	0.0	3	0.2	95.641617	0.000000;	%	PEL
2	0.0	0.0	3	0.2	108.503477	0.000000;	%	PEL
2	0.0	0.0	3	0.2	45.747567	0.000000;	%	NG
2	0.0	0.0	3	0.2	119.470558	0.000000;	%	PEL
2	0.0	0.0	3	0.2	114.562996	0.000000;	%	PEL
2	0.0	0.0	3	0.2	42.487379	0.000000;	%	NG
2	0.0	0.0	3	0.2	15.941005	0.000000;	%	NG
2	0.0	0.0	3	0.2	117.547379	0.000000;	%	PEL
2	0.0	0.0	3	0.2	21.410254	0.000000;	%	NG
2	0.0	0.0	3	0.2	24.302999	0.000000;	%	COW
2	0.0	0.0	3	0.2	20.747564	0.000000;	%	NG
2	0.0	0.0	3	0.2	25.918907	0.000000;	%	NG
2	0.0	0.0	3	0.2	30.136192	0.000000;	%	COW
2	0.0	0.0	3	0.2	25.662853	0.000000;	%	COW
2	0.0	0.0	3	0.2	22.832289	0.000000;	%	COW
2	0.0	0.0	3	0.2	36.146654	0.000000;	%	NG
2	0.0	0.0	3	0.2	113.099224	0.000000;	%	PEL
2	0.0	0.0	3	0.2	33.947006	0.000000;	%	COW
2	0.0	0.0	3	0.2	105.763597	0.000000;	%	PEL
2	0.0	0.0	3	0.2	44.947686	0.000000;	%	NG
2	0.0	0.0	3	0.2	35.384778	0.000000;	%	COW
2	0.0	0.0	3	0.2	50.161835	0.000000;	%	NG
2	0.0	0.0	3	0.2	16.173483	0.000000;	%	NG
2	0.0	0.0	3	0.2	28.329067	0.000000;	%	NG
2	0.0	0.0	3	0.2	26.830772	0.000000;	%	NG
2	0.0	0.0	3	0.2	38.439168	0.000000;	%	NG
2	0.0	0.0	3	0.2	30.766553	0.000000;	%	NG
2	0.0	0.0	3	0.2	112.034252	0.000000;	%	PEL
2	0.0	0.0	3	0.2	111.256661	0.000000;	%	PEL
2	0.0	0.0	3	0.2	31.903692	0.000000;	%	NG
2	0.0	0.0	3	0.2	37.571461	0.000000;	%	NG
2	0.0	0.0	3	0.2	30.824418	0.000000;	%	NG
2	0.0	0.0	3	0.2	9.522708	0.000000;	%	COW
2	0.0	0.0	3	0.2	29.148754	0.000000;	%	NG
2	0.0	0.0	3	0.2	49.107105	0.000000;	%	NG
2	0.0	0.0	3	0.2	107.903003	0.000000;	%	PEL
2	0.0	0.0	3	0.2	18.968990	0.000000;	%	NG
2	0.0	0.0	3	0.2	45.025270	0.000000;	%	NG
2	0.0	0.0	3	0.2	34.667931	0.000000;	%	NG
2	0.0	0.0	3	0.2	115.801776	0.000000;	%	PEL
2	0.0	0.0	3	0.2	101.500034	0.000000;	%	PEL
2	0.0	0.0	3	0.2	52.218741	0.000000;	%	NG
2	0.0	0.0	3	0.2	29.986124	0.000000;	%	COW
2	0.0	0.0	3	0.2	18.287270	0.000000;	%	COW
2	0.0	0.0	3	0.2	19.695702	0.000000;	%	COW
2	0.0	0.0	3	0.2	16.041935	0.000000;	%	NG
2	0.0	0.0	3	0.2	124.968066	0.000000;	%	PEL
2	0.0	0.0	3	0.2	46.900362	0.000000;	%	NG
2	0.0	0.0	3	0.2	19.746809	0.000000;	%	COW
2	0.0	0.0	3	0.2	53.419403	0.000000;	%	NG
2	0.0	0.0	3	0.2	30.436505	0.000000;	%	NG
2	0.0	0.0	3	0.2	130.177918	0.000000;	%	PEL
2	0.0	0.0	3	0.2	9.833102	0.000000;	%	NG
2	0.0	0.0	3	0.2	52.556342	0.000000;	%	NG
2	0.0	0.0	3	0.2	42.971076	0.000000;	%	NG
2	0.0	0.0	3	0.2	32.553280	0.000000;	%	NG
2	0.0	0.0	3	0.2	33.859824	0.000000;	%	NG
2	0.0	0.0	3	0.2	34.630533	0.000000;	%	NG
2	0.0	0.0	3	0.2	99.666935	0.000000;	%	PEL
2	0.0	0.0	3	0.2	121.167121	0.000000;	%	PEL
2	0.0	0.0	3	0.2	34.220455	0.000000;	%	NG
2	0.0	0.0	3	0.2	30.927873	0.000000;	%	NG
2	0.0	0.0	3	0.2	11.674529	0.000000;	%	NG
2	0.0	0.0	3	0.2	34.846550	0.000000;	%	NG
2	0.0	0.0	3	0.2	34.713775	0.000000;	%	COW
2	0.0	0.0	3	0.2	15.847005	0.000000;	%	NG
2	0.0	0.0	3	0.2	41.864113	0.000000;	%	NG
2	0.0	0.0	3	0.2	36.879701	0.000000;	%	NG
2	0.0	0.0	3	0.2	22.511667	0.000000;	%	NG
2	0.0	0.0	3	0.2	132.395456	0.000000;	%	PEL
2	0.0	0.0	3	0.2	32.079079	0.000000;	%	NG
2	0.0	0.0	3	0.2	110.404017	0.000000;	%	PEL
2	0.0	0.0	3	0.2	122.272008	0.000000;	%	PEL
2	0.0	0.0	3	0.2	112.745819	0.000000;	%	PEL
2	0.0	0.0	3	0.2	100.162214	0.000000;	%	PEL
2	0.0	0.0	3	0.2	120.482600	0.000000;	%	PEL
2	0.0	0.0	3	0.2	113.346572	0.000000;	%	PEL
2	0.0	0.0	3	0.2	28.156702	0.000000;	%	NG
2	0.0	0.0	3	0.2	98.089855	0.000000;	%	PEL
2	0.0	0.0	3	0.2	32.200435	0.000000;	%	NG
2	0.0	0.0	3	0.2	108.577846	0.000000;	%	PEL
2	0.0	0.0	3	0.2	36.391394	0.000000;	%	NG
2	0.0	0.0	3	0.2	16.770250	0.000000;	%	COW
2	0.0	0.0	3	0.2	115.744771	0.000000;	%	PEL
2	0.0	0.0	3	0.2	138.641657	0.000000;	%	PEL
2	0.0	0.0	3	0.2	111.864791	0.000000;	%	PEL
2	0.0	0.0	3	0.2	20.283629	0.000000;	%	NG
2	0.0	0.0	3	0.2	21.470098	0.000000;	%	NG
2	0.0	0.0	3	0.2	28.839844	0.000000;	%	NG
2	0.0	0.0	3	0.2	24.970489	0.000000;	%	NG
2	0.0	0.0	3	0.2	6.354384	0.000000;	%	NG
2	0.0	0.0	3	0.2	105.132303	0.000000;	%	PEL
2	0.0	0.0	3	0.2	123.870541	0.000000;	%	PEL
2	0.0	0.0	3	0.2	21.699212	0.000000;	%	COW
2	0.0	0.0	3	0.2	120.298901	0.000000;	%	PEL
2	0.0	0.0	3	0.2	100.034774	0.000000;	%	PEL
2	0.0	0.0	3	0.2	109.150146	0.000000;	%	PEL
2	0.0	0.0	3	0.2	22.968847	0.000000;	%	NG
2	0.0	0.0	3	0.2	23.788420	0.000000;	%	NG
2	0.0	0.0	3	0.2	128.248743	0.000000;	%	PEL
2	0.0	0.0	3	0.2	35.875402	0.000000;	%	NG
2	0.0	0.0	3	0.2	116.050135	0.000000;	%	PEL
2	0.0	0.0	3	0.2	50.377164	0.000000;	%	NG
2	0.0	0.0	3	0.2	28.598025	0.000000;	%	NG
2	0.0	0.0	3	0.2	110.263035	0.000000;	%	PEL
2	0.0	0.0	3	0.2	29.939589	0.000000;	%	NG
2	0.0	0.0	3	0.2	20.679195	0.000000;	%	COW
2	0.0	0.0	3	0.2	100.517789	0.000000;	%	PEL
2	0.0	0.0	3	0.2	19.334768	0.000000;	%	NG
2	0.0	0.0	3	0.2	19.391458	0.000000;	%	NG
2	0.0	0.0	3	0.2	28.561948	0.000000;	%	NG
...
];

%% storage data
%	bus	energy	energy_rating	charge_rating	discharge_rating	thermal_rating	qmin	qmax	r	x	standby_loss	status
mpc.storage = [
	5980	0.0	0.0	1.00	3853.6500	1926.8250	1387.3140	0.9	0.85	1000	-1000	1000	0.1	0.01	0	0	1;
	6172	0.0	0.0	1.00	1613.5500	806.7750	580.8780	0.9	0.85	1000	-1000	1000	0.1	0.01	0	0	1;
	6165	0.0	0.0	1.00	1232.2500	616.1250	443.6100	0.9	0.85	1000	-1000	1000	0.1	0.01	0	0	1;
	6026	0.0	0.0	1.00	1202.5500	601.2750	432.9180	0.9	0.85	1000	-1000	1000	0.1	0.01	0	0	1;
	6047	0.0	0.0	1.00	1065.0000	532.5000	383.4000	0.9	0.85	1000	-1000	1000	0.1	0.01	0	0	1;
	6018	0.0	0.0	1.00	1059.1500	529.5750	381.2940	0.9	0.85	1000	-1000	1000	0.1	0.01	0	0	1;
	5967	0.0	0.0	1.00	968.1000	484.0500	348.5160	0.9	0.85	1000	-1000	1000	0.1	0.01	0	0	1;
	6225	0.0	0.0	1.00	945.3000	472.6500	340.3080	0.9	0.85	1000	-1000	1000	0.1	0.01	0	0	1;
	5957	0.0	0.0	1.00	909.6000	454.8000	327.4560	0.9	0.85	1000	-1000	1000	0.1	0.01	0	0	1;
	6056	0.0	0.0	1.00	890.5500	445.2750	320.5980	0.9	0.85	1000	-1000	1000	0.1	0.01	0	0	1;
	5982	0.0	0.0	1.00	806.7000	403.3500	290.4120	0.9	0.85	1000	-1000	1000	0.1	0.01	0	0	1;
	6127	0.0	0.0	1.00	803.2500	401.6250	289.1700	0.9	0.85	1000	-1000	1000	0.1	0.01	0	0	1;
	6020	0.0	0.0	1.00	756.9000	378.4500	272.4840	0.9	0.85	1000	-1000	1000	0.1	0.01	0	0	1;
	5974	0.0	0.0	1.00	703.3500	351.6750	253.2060	0.9	0.85	1000	-1000	1000	0.1	0.01	0	0	1;
	6017	0.0	0.0	1.00	696.0000	348.0000	250.5600	0.9	0.85	1000	-1000	1000	0.1	0.01	0	0	1;
	472	0.0	0.0	1.00	683.7000	341.8500	246.1320	0.9	0.85	1000	-1000	1000	0.1	0.01	0	0	1;
	6123	0.0	0.0	1.00	677.2500	338.6250	243.8100	0.9	0.85	1000	-1000	1000	0.1	0.01	0	0	1;
	6051	0.0	0.0	1.00	669.0000	334.5000	240.8400	0.9	0.85	1000	-1000	1000	0.1	0.01	0	0	1;
	473	0.0	0.0	1.00	665.7000	332.8500	239.6520	0.9	0.85	1000	-1000	1000	0.1	0.01	0	0	1;
	6209	0.0	0.0	1.00	655.0500	327.5250	235.8180	0.9	0.85	1000	-1000	1000	0.1	0.01	0	0	1;
	6088	0.0	0.0	1.00	632.8500	316.4250	227.8260	0.9	0.85	1000	-1000	1000	0.1	0.01	0	0	1;
	5983	0.0	0.0	1.00	611.5500	305.7750	220.1580	0.9	0.85	1000	-1000	1000	0.1	0.01	0	0	1;
	6173	0.0	0.0	1.00	611.5500	305.7750	220.1580	0.9	0.85	1000	-1000	1000	0.1	0.01	0	0	1;
	2133	0.0	0.0	1.00	608.7000	304.3500	219.1320	0.9	0.85	1000	-1000	1000	0.1	0.01	0	0	1;
	6069	0.0	0.0	1.00	592.3500	296.1750	213.2460	0.9	0.85	1000	-1000	1000	0.1	0.01	0	0	1;
	6114	0.0	0.0	1.00	591.0000	295.5000	212.7600	0.9	0.85	1000	-1000	1000	0.1	0.01	0	0	1;
	6110	0.0	0.0	1.00	576.3000	288.1500	207.4680	0.9	0.85	1000	-1000	1000	0.1	0.01	0	0	1;
	6144	0.0	0.0	1.00	555.4500	277.7250	199.9620	0.9	0.85	1000	-1000	1000	0.1	0.01	0	0	1;
	6100	0.0	0.0	1.00	542.1000	271.0500	195.1560	0.9	0.85	1000	-1000	1000	0.1	0.01	0	0	1;
	5986	0.0	0.0	1.00	531.7500	265.8750	191.4300	0.9	0.85	1000	-1000	1000	0.1	0.01	0	0	1;
	6135	0.0	0.0	1.00	522.3000	261.1500	188.0280	0.9	0.85	1000	-1000	1000	0.1	0.01	0	0	1;
	6128	0.0	0.0	1.00	514.3500	257.1750	185.1660	0.9	0.85	1000	-1000	1000	0.1	0.01	0	0	1;
	3755	0.0	0.0	1.00	499.8000	249.9000	179.9280	0.9	0.85	1000	-1000	1000	0.1	0.01	0	0	1;
	6028	0.0	0.0	1.00	495.6000	247.8000	178.4160	0.9	0.85	1000	-1000	1000	0.1	0.01	0	0	1;
	6174	0.0	0.0	1.00	474.3000	237.1500	170.7480	0.9	0.85	1000	-1000	1000	0.1	0.01	0	0	1;
	5973	0.0	0.0	1.00	471.9000	235.9500	169.8840	0.9	0.85	1000	-1000	1000	0.1	0.01	0	0	1;
	6205	0.0	0.0	1.00	471.4500	235.7250	169.7220	0.9	0.85	1000	-1000	1000	0.1	0.01	0	0	1;
	6094	0.0	0.0	1.00	468.6000	234.3000	168.6960	0.9	0.85	1000	-1000	1000	0.1	0.01	0	0	1;
	6033	0.0	0.0	1.00	458.8500	229.4250	165.1860	0.9	0.85	1000	-1000	1000	0.1	0.01	0	0	1;
	6243	0.0	0.0	1.00	456.9000	228.4500	164.4840	0.9	0.85	1000	-1000	1000	0.1	0.01	0	0	1;
	6181	0.0	0.0	1.00	441.6000	220.8000	158.9760	0.9	0.85	1000	-1000	1000	0.1	0.01	0	0	1;
	6113	0.0	0.0	1.00	436.5000	218.2500	157.1400	0.9	0.85	1000	-1000	1000	0.1	0.01	0	0	1;
	6064	0.0	0.0	1.00	430.3500	215.1750	154.9260	0.9	0.85	1000	-1000	1000	0.1	0.01	0	0	1;
	6163	0.0	0.0	1.00	427.5000	213.7500	153.9000	0.9	0.85	1000	-1000	1000	0.1	0.01	0	0	1;
	5963	0.0	0.0	1.00	425.1000	212.5500	153.0360	0.9	0.85	1000	-1000	1000	0.1	0.01	0	0	1;
	6045	0.0	0.0	1.00	423.1500	211.5750	152.3340	0.9	0.85	1000	-1000	1000	0.1	0.01	0	0	1;
	6240	0.0	0.0	1.00	419.5500	209.7750	151.0380	0.9	0.85	1000	-1000	1000	0.1	0.01	0	0	1;
	6077	0.0	0.0	1.00	418.6500	209.3250	150.7140	0.9	0.85	1000	-1000	1000	0.1	0.01	0	0	1;
	5991	0.0	0.0	1.00	383.8500	191.9250	138.1860	0.9	0.85	1000	-1000	1000	0.1	0.01	0	0	1;
	6164	0.0	0.0	1.00	369.0000	184.5000	132.8400	0.9	0.85	1000	-1000	1000	0.1	0.01	0	0	1;
	6207	0.0	0.0	1.00	359.1000	179.5500	129.2760	0.9	0.85	1000	-1000	1000	0.1	0.01	0	0	1;
	6242	0.0	0.0	1.00	353.5500	176.7750	127.2780	0.9	0.85	1000	-1000	1000	0.1	0.01	0	0	1;
	6129	0.0	0.0	1.00	351.0000	175.5000	126.3600	0.9	0.85	1000	-1000	1000	0.1	0.01	0	0	1;
	6072	0.0	0.0	1.00	346.0500	173.0250	124.5780	0.9	0.85	1000	-1000	1000	0.1	0.01	0	0	1;
	6169	0.0	0.0	1.00	342.0000	171.0000	123.1200	0.9	0.85	1000	-1000	1000	0.1	0.01	0	0	1;
	6044	0.0	0.0	1.00	335.5500	167.7750	120.7980	0.9	0.85	1000	-1000	1000	0.1	0.01	0	0	1;
	6052	0.0	0.0	1.00	333.7500	166.8750	120.1500	0.9	0.85	1000	-1000	1000	0.1	0.01	0	0	1;
	6099	0.0	0.0	1.00	333.7500	166.8750	120.1500	0.9	0.85	1000	-1000	1000	0.1	0.01	0	0	1;
	6080	0.0	0.0	1.00	331.5000	165.7500	119.3400	0.9	0.85	1000	-1000	1000	0.1	0.01	0	0	1;
	6238	0.0	0.0	1.00	327.0000	163.5000	117.7200	0.9	0.85	1000	-1000	1000	0.1	0.01	0	0	1;
	6182	0.0	0.0	1.00	325.5000	162.7500	117.1800	0.9	0.85	1000	-1000	1000	0.1	0.01	0	0	1;
	6108	0.0	0.0	1.00	321.0000	160.5000	115.5600	0.9	0.85	1000	-1000	1000	0.1	0.01	0	0	1;
	5968	0.0	0.0	1.00	318.0000	159.0000	114.4800	0.9	0.85	1000	-1000	1000	0.1	0.01	0	0	1;
	590	0.0	0.0	1.00	302.1000	151.0500	108.7560	0.9	0.85	1000	-1000	1000	0.1	0.01	0	0	1;
	6105	0.0	0.0	1.00	296.8500	148.4250	106.8660	0.9	0.85	1000	-1000	1000	0.1	0.01	0	0	1;
	6130	0.0	0.0	1.00	293.8500	146.9250	105.7860	0.9	0.85	1000	-1000	1000	0.1	0.01	0	0	1;
	6115	0.0	0.0	1.00	292.2000	146.1000	105.1920	0.9	0.85	1000	-1000	1000	0.1	0.01	0	0	1;
	6098	0.0	0.0	1.00	288.7500	144.3750	103.9500	0.9	0.85	1000	-1000	1000	0.1	0.01	0	0	1;
	6015	0.0	0.0	1.00	285.9000	142.9500	102.9240	0.9	0.85	1000	-1000	1000	0.1	0.01	0	0	1;
	6008	0.0	0.0	1.00	283.8000	141.9000	102.1680	0.9	0.85	1000	-1000	1000	0.1	0.01	0	0	1;
	6218	0.0	0.0	1.00	282.0000	141.0000	101.5200	0.9	0.85	1000	-1000	1000	0.1	0.01	0	0	1;
	6021	0.0	0.0	1.00	281.4000	140.7000	101.3040	0.9	0.85	1000	-1000	1000	0.1	0.01	0	0	1;
	4578	0.0	0.0	1.00	280.6500	140.3250	101.0340	0.9	0.85	1000	-1000	1000	0.1	0.01	0	0	1;
	6161	0.0	0.0	1.00	275.2500	137.6250	99.0900	0.9	0.85	1000	-1000	1000	0.1	0.01	0	0	1;
	6076	0.0	0.0	1.00	270.9000	135.4500	97.5240	0.9	0.85	1000	-1000	1000	0.1	0.01	0	0	1;
	6171	0.0	0.0	1.00	269.1000	134.5500	96.8760	0.9	0.85	1000	-1000	1000	0.1	0.01	0	0	1;
	6043	0.0	0.0	1.00	264.9000	132.4500	95.3640	0.9	0.85	1000	-1000	1000	0.1	0.01	0	0	1;
	1185	0.0	0.0	1.00	261.7500	130.8750	94.2300	0.9	0.85	1000	-1000	1000	0.1	0.01	0	0	1;
	5039	0.0	0.0	1.00	257.5500	128.7750	92.7180	0.9	0.85	1000	-1000	1000	0.1	0.01	0	0	1;
	6002	0.0	0.0	1.00	257.2500	128.6250	92.6100	0.9	0.85	1000	-1000	1000	0.1	0.01	0	0	1;
	6239	0.0	0.0	1.00	256.6500	128.3250	92.3940	0.9	0.85	1000	-1000	1000	0.1	0.01	0	0	1;
	6133	0.0	0.0	1.00	250.8000	125.4000	90.2880	0.9	0.85	1000	-1000	1000	0.1	0.01	0	0	1;
	5954	0.0	0.0	1.00	247.9500	123.9750	89.2620	0.9	0.85	1000	-1000	1000	0.1	0.01	0	0	1;
	3210	0.0	0.0	1.00	247.6500	123.8250	89.1540	0.9	0.85	1000	-1000	1000	0.1	0.01	0	0	1;
	6041	0.0	0.0	1.00	246.1500	123.0750	88.6140	0.9	0.85	1000	-1000	1000	0.1	0.01	0	0	1;
	4338	0.0	0.0	1.00	238.3500	119.1750	85.8060	0.9	0.85	1000	-1000	1000	0.1	0.01	0	0	1;
	5028	0.0	0.0	1.00	235.5000	117.7500	84.7800	0.9	0.85	1000	-1000	1000	0.1	0.01	0	0	1;
	2943	0.0	0.0	1.00	234.3000	117.1500	84.3480	0.9	0.85	1000	-1000	1000	0.1	0.01	0	0	1;
	6024	0.0	0.0	1.00	234.1500	117.0750	84.2940	0.9	0.85	1000	-1000	1000	0.1	0.01	0	0	1;
	3403	0.0	0.0	1.00	233.7000	116.8500	84.1320	0.9	0.85	1000	-1000	1000	0.1	0.01	0	0	1;
	6217	0.0	0.0	1.00	222.4500	111.2250	80.0820	0.9	0.85	1000	-1000	1000	0.1	0.01	0	0	1;
	4937	0.0	0.0	1.00	220.5000	110.2500	79.3800	0.9	0.85	1000	-1000	1000	0.1	0.01	0	0	1;
	58	0.0	0.0	1.00	220.0500	110.0250	79.2180	0.9	0.85	1000	-1000	1000	0.1	0.01	0	0	1;
	5985	0.0	0.0	1.00	219.0000	109.5000	78.8400	0.9	0.85	1000	-1000	1000	0.1	0.01	0	0	1;
	6075	0.0	0.0	1.00	217.9500	108.9750	78.4620	0.9	0.85	1000	-1000	1000	0.1	0.01	0	0	1;
	1500	0.0	0.0	1.00	217.2000	108.6000	78.1920	0.9	0.85	1000	-1000	1000	0.1	0.01	0	0	1;
	5971	0.0	0.0	1.00	217.0500	108.5250	78.1380	0.9	0.85	1000	-1000	1000	0.1	0.01	0	0	1;
	6001	0.0	0.0	1.00	212.7000	106.3500	76.5720	0.9	0.85	1000	-1000	1000	0.1	0.01	0	0	1;
	5984	0.0	0.0	1.00	206.5500	103.2750	74.3580	0.9	0.85	1000	-1000	1000	0.1	0.01	0	0	1;
	4032	0.0	0.0	1.00	205.3500	102.6750	73.9260	0.9	0.85	1000	-1000	1000	0.1	0.01	0	0	1;
	2999	0.0	0.0	1.00	204.4500	102.2250	73.6020	0.9	0.85	1000	-1000	1000	0.1	0.01	0	0	1;
	6066	0.0	0.0	1.00	201.9000	100.9500	72.6840	0.9	0.85	1000	-1000	1000	0.1	0.01	0	0	1;
	4872	0.0	0.0	1.00	200.7000	100.3500	72.2520	0.9	0.85	1000	-1000	1000	0.1	0.01	0	0	1;
	1372	0.0	0.0	1.00	200.4000	100.2000	72.1440	0.9	0.85	1000	-1000	1000	0.1	0.01	0	0	1;
	3360	0.0	0.0	1.00	200.2500	100.1250	72.0900	0.9	0.85	1000	-1000	1000	0.1	0.01	0	0	1;
	6119	0.0	0.0	1.00	199.5000	99.7500	71.8200	0.9	0.85	1000	-1000	1000	0.1	0.01	0	0	1;
	4757	0.0	0.0	1.00	197.5500	98.7750	71.1180	0.9	0.85	1000	-1000	1000	0.1	0.01	0	0	1;
	3266	0.0	0.0	1.00	196.2000	98.1000	70.6320	0.9	0.85	1000	-1000	1000	0.1	0.01	0	0	1;
	4566	0.0	0.0	1.00	189.6000	94.8000	68.2560	0.9	0.85	1000	-1000	1000	0.1	0.01	0	0	1;
	2788	0.0	0.0	1.00	189.3000	94.6500	68.1480	0.9	0.85	1000	-1000	1000	0.1	0.01	0	0	1;
	1597	0.0	0.0	1.00	187.6500	93.8250	67.5540	0.9	0.85	1000	-1000	1000	0.1	0.01	0	0	1;
	6134	0.0	0.0	1.00	187.5000	93.7500	67.5000	0.9	0.85	1000	-1000	1000	0.1	0.01	0	0	1;
	3205	0.0	0.0	1.00	187.2000	93.6000	67.3920	0.9	0.85	1000	-1000	1000	0.1	0.01	0	0	1;
	6227	0.0	0.0	1.00	186.3000	93.1500	67.0680	0.9	0.85	1000	-1000	1000	0.1	0.01	0	0	1;
	939	0.0	0.0	1.00	186.0000	93.0000	66.9600	0.9	0.85	1000	-1000	1000	0.1	0.01	0	0	1;
	6012	0.0	0.0	1.00	185.8500	92.9250	66.9060	0.9	0.85	1000	-1000	1000	0.1	0.01	0	0	1;
	6177	0.0	0.0	1.00	184.8000	92.4000	66.5280	0.9	0.85	1000	-1000	1000	0.1	0.01	0	0	1;
	5959	0.0	0.0	1.00	183.6000	91.8000	66.0960	0.9	0.85	1000	-1000	1000	0.1	0.01	0	0	1;
	3704	0.0	0.0	1.00	181.6500	90.8250	65.3940	0.9	0.85	1000	-1000	1000	0.1	0.01	0	0	1;
	2686	0.0	0.0	1.00	180.4500	90.2250	64.9620	0.9	0.85	1000	-1000	1000	0.1	0.01	0	0	1;
	2199	0.0	0.0	1.00	178.6500	89.3250	64.3140	0.9	0.85	1000	-1000	1000	0.1	0.01	0	0	1;
	6102	0.0	0.0	1.00	178.5000	89.2500	64.2600	0.9	0.85	1000	-1000	1000	0.1	0.01	0	0	1;
	1887	0.0	0.0	1.00	176.1000	88.0500	63.3960	0.9	0.85	1000	-1000	1000	0.1	0.01	0	0	1;
	6116	0.0	0.0	1.00	175.5000	87.7500	63.1800	0.9	0.85	1000	-1000	1000	0.1	0.01	0	0	1;
	4378	0.0	0.0	1.00	172.8000	86.4000	62.2080	0.9	0.85	1000	-1000	1000	0.1	0.01	0	0	1;
	1008	0.0	0.0	1.00	171.1500	85.5750	61.6140	0.9	0.85	1000	-1000	1000	0.1	0.01	0	0	1;
	430	0.0	0.0	1.00	171.0000	85.5000	61.5600	0.9	0.85	1000	-1000	1000	0.1	0.01	0	0	1;
	2210	0.0	0.0	1.00	171.0000	85.5000	61.5600	0.9	0.85	1000	-1000	1000	0.1	0.01	0	0	1;
	6160	0.0	0.0	1.00	169.9500	84.9750	61.1820	0.9	0.85	1000	-1000	1000	0.1	0.01	0	0	1;
	131	0.0	0.0	1.00	166.0500	83.0250	59.7780	0.9	0.85	1000	-1000	1000	0.1	0.01	0	0	1;
	6222	0.0	0.0	1.00	164.2500	82.1250	59.1300	0.9	0.85	1000	-1000	1000	0.1	0.01	0	0	1;
	905	0.0	0.0	1.00	163.2000	81.6000	58.7520	0.9	0.85	1000	-1000	1000	0.1	0.01	0	0	1;
	4201	0.0	0.0	1.00	162.9000	81.4500	58.6440	0.9	0.85	1000	-1000	1000	0.1	0.01	0	0	1;
	3156	0.0	0.0	1.00	161.7000	80.8500	58.2120	0.9	0.85	1000	-1000	1000	0.1	0.01	0	0	1;
	107	0.0	0.0	1.00	161.1000	80.5500	57.9960	0.9	0.85	1000	-1000	1000	0.1	0.01	0	0	1;
	3838	0.0	0.0	1.00	161.1000	80.5500	57.9960	0.9	0.85	1000	-1000	1000	0.1	0.01	0	0	1;
	784	0.0	0.0	1.00	160.9500	80.4750	57.9420	0.9	0.85	1000	-1000	1000	0.1	0.01	0	0	1;
	3344	0.0	0.0	1.00	160.9500	80.4750	57.9420	0.9	0.85	1000	-1000	1000	0.1	0.01	0	0	1;
	2429	0.0	0.0	1.00	159.4500	79.7250	57.4020	0.9	0.85	1000	-1000	1000	0.1	0.01	0	0	1;
	6042	0.0	0.0	1.00	157.5000	78.7500	56.7000	0.9	0.85	1000	-1000	1000	0.1	0.01	0	0	1;
	6157	0.0	0.0	1.00	157.5000	78.7500	56.7000	0.9	0.85	1000	-1000	1000	0.1	0.01	0	0	1;
	4391	0.0	0.0	1.00	157.3500	78.6750	56.6460	0.9	0.85	1000	-1000	1000	0.1	0.01	0	0	1;
	6025	0.0	0.0	1.00	156.0000	78.0000	56.1600	0.9	0.85	1000	-1000	1000	0.1	0.01	0	0	1;
	6185	0.0	0.0	1.00	155.7000	77.8500	56.0520	0.9	0.85	1000	-1000	1000	0.1	0.01	0	0	1;
	3400	0.0	0.0	1.00	154.5000	77.2500	55.6200	0.9	0.85	1000	-1000	1000	0.1	0.01	0	0	1;
	3264	0.0	0.0	1.00	153.9000	76.9500	55.4040	0.9	0.85	1000	-1000	1000	0.1	0.01	0	0	1;
	4118	0.0	0.0	1.00	153.6000	76.8000	55.2960	0.9	0.85	1000	-1000	1000	0.1	0.01	0	0	1;
	5966	0.0	0.0	1.00	153.3000	76.6500	55.1880	0.9	0.85	1000	-1000	1000	0.1	0.01	0	0	1;
	4149	0.0	0.0	1.00	153.0000	76.5000	55.0800	0.9	0.85	1000	-1000	1000	0.1	0.01	0	0	1;
	4695	0.0	0.0	1.00	153.0000	76.5000	55.0800	0.9	0.85	1000	-1000	1000	0.1	0.01	0	0	1;
	5947	0.0	0.0	1.00	152.8500	76.4250	55.0260	0.9	0.85	1000	-1000	1000	0.1	0.01	0	0	1;
	4584	0.0	0.0	1.00	152.4000	76.2000	54.8640	0.9	0.85	1000	-1000	1000	0.1	0.01	0	0	1;
	4640	0.0	0.0	1.00	151.8000	75.9000	54.6480	0.9	0.85	1000	-1000	1000	0.1	0.01	0	0	1;
	134	0.0	0.0	1.00	151.6500	75.8250	54.5940	0.9	0.85	1000	-1000	1000	0.1	0.01	0	0	1;
	6147	0.0	0.0	1.00	151.5000	75.7500	54.5400	0.9	0.85	1000	-1000	1000	0.1	0.01	0	0	1;
	2818	0.0	0.0	1.00	151.3500	75.6750	54.4860	0.9	0.85	1000	-1000	1000	0.1	0.01	0	0	1;
	757	0.0	0.0	1.00	148.8000	74.4000	53.5680	0.9	0.85	1000	-1000	1000	0.1	0.01	0	0	1;
	4035	0.0	0.0	1.00	147.7500	73.8750	53.1900	0.9	0.85	1000	-1000	1000	0.1	0.01	0	0	1;
	4187	0.0	0.0	1.00	147.6000	73.8000	53.1360	0.9	0.85	1000	-1000	1000	0.1	0.01	0	0	1;
	3958	0.0	0.0	1.00	146.7000	73.3500	52.8120	0.9	0.85	1000	-1000	1000	0.1	0.01	0	0	1;
	5951	0.0	0.0	1.00	146.7000	73.3500	52.8120	0.9	0.85	1000	-1000	1000	0.1	0.01	0	0	1;
	3939	0.0	0.0	1.00	146.4000	73.2000	52.7040	0.9	0.85	1000	-1000	1000	0.1	0.01	0	0	1;
	6215	0.0	0.0	1.00	145.6500	72.8250	52.4340	0.9	0.85	1000	-1000	1000	0.1	0.01	0	0	1;
	681	0.0	0.0	1.00	144.9000	72.4500	52.1640	0.9	0.85	1000	-1000	1000	0.1	0.01	0	0	1;
	2075	0.0	0.0	1.00	144.0000	72.0000	51.8400	0.9	0.85	1000	-1000	1000	0.1	0.01	0	0	1;
	4555	0.0	0.0	1.00	142.0500	71.0250	51.1380	0.9	0.85	1000	-1000	1000	0.1	0.01	0	0	1;
	2675	0.0	0.0	1.00	141.9000	70.9500	51.0840	0.9	0.85	1000	-1000	1000	0.1	0.01	0	0	1;
	2787	0.0	0.0	1.00	141.7500	70.8750	51.0300	0.9	0.85	1000	-1000	1000	0.1	0.01	0	0	1;
	3558	0.0	0.0	1.00	141.4500	70.7250	50.9220	0.9	0.85	1000	-1000	1000	0.1	0.01	0	0	1;
	2249	0.0	0.0	1.00	140.7000	70.3500	50.6520	0.9	0.85	1000	-1000	1000	0.1	0.01	0	0	1;
	1264	0.0	0.0	1.00	140.5500	70.2750	50.5980	0.9	0.85	1000	-1000	1000	0.1	0.01	0	0	1;
	83	0.0	0.0	1.00	138.6000	69.3000	49.8960	0.9	0.85	1000	-1000	1000	0.1	0.01	0	0	1;
	4095	0.0	0.0	1.00	137.5500	68.7750	49.5180	0.9	0.85	1000	-1000	1000	0.1	0.01	0	0	1;
	1156	0.0	0.0	1.00	135.6000	67.8000	48.8160	0.9	0.85	1000	-1000	1000	0.1	0.01	0	0	1;
	3873	0.0	0.0	1.00	135.6000	67.8000	48.8160	0.9	0.85	1000	-1000	1000	0.1	0.01	0	0	1;
	5950	0.0	0.0	1.00	135.1500	67.5750	48.6540	0.9	0.85	1000	-1000	1000	0.1	0.01	0	0	1;
	1684	0.0	0.0	1.00	134.5500	67.2750	48.4380	0.9	0.85	1000	-1000	1000	0.1	0.01	0	0	1;
	2516	0.0	0.0	1.00	133.5000	66.7500	48.0600	0.9	0.85	1000	-1000	1000	0.1	0.01	0	0	1;
	3120	0.0	0.0	1.00	133.3500	66.6750	48.0060	0.9	0.85	1000	-1000	1000	0.1	0.01	0	0	1;
	3521	0.0	0.0	1.00	132.9000	66.4500	47.8440	0.9	0.85	1000	-1000	1000	0.1	0.01	0	0	1;
	3699	0.0	0.0	1.00	132.9000	66.4500	47.8440	0.9	0.85	1000	-1000	1000	0.1	0.01	0	0	1;
	1088	0.0	0.0	1.00	132.3000	66.1500	47.6280	0.9	0.85	1000	-1000	1000	0.1	0.01	0	0	1;
	5015	0.0	0.0	1.00	131.8500	65.9250	47.4660	0.9	0.85	1000	-1000	1000	0.1	0.01	0	0	1;
	2216	0.0	0.0	1.00	131.2500	65.6250	47.2500	0.9	0.85	1000	-1000	1000	0.1	0.01	0	0	1;
	2203	0.0	0.0	1.00	130.9500	65.4750	47.1420	0.9	0.85	1000	-1000	1000	0.1	0.01	0	0	1;
	6210	0.0	0.0	1.00	130.2000	65.1000	46.8720	0.9	0.85	1000	-1000	1000	0.1	0.01	0	0	1;
	3078	0.0	0.0	1.00	130.0500	65.0250	46.8180	0.9	0.85	1000	-1000	1000	0.1	0.01	0	0	1;
	6086	0.0	0.0	1.00	129.4500	64.7250	46.6020	0.9	0.85	1000	-1000	1000	0.1	0.01	0	0	1;
	1428	0.0	0.0	1.00	129.0000	64.5000	46.4400	0.9	0.85	1000	-1000	1000	0.1	0.01	0	0	1;
	4635	0.0	0.0	1.00	128.8500	64.4250	46.3860	0.9	0.85	1000	-1000	1000	0.1	0.01	0	0	1;
	5989	0.0	0.0	1.00	128.8500	64.4250	46.3860	0.9	0.85	1000	-1000	1000	0.1	0.01	0	0	1;
	6009	0.0	0.0	1.00	128.7000	64.3500	46.3320	0.9	0.85	1000	-1000	1000	0.1	0.01	0	0	1;
	3727	0.0	0.0	1.00	126.6000	63.3000	45.5760	0.9	0.85	1000	-1000	1000	0.1	0.01	0	0	1;
	3646	0.0	0.0	1.00	125.8500	62.9250	45.3060	0.9	0.85	1000	-1000	1000	0.1	0.01	0	0	1;
	6011	0.0	0.0	1.00	124.5000	62.2500	44.8200	0.9	0.85	1000	-1000	1000	0.1	0.01	0	0	1;
	6141	0.0	0.0	1.00	124.3500	62.1750	44.7660	0.9	0.85	1000	-1000	1000	0.1	0.01	0	0	1;
	1578	0.0	0.0	1.00	123.9000	61.9500	44.6040	0.9	0.85	1000	-1000	1000	0.1	0.01	0	0	1;
	5981	0.0	0.0	1.00	123.9000	61.9500	44.6040	0.9	0.85	1000	-1000	1000	0.1	0.01	0	0	1;
	330	0.0	0.0	1.00	122.5500	61.2750	44.1180	0.9	0.85	1000	-1000	1000	0.1	0.01	0	0	1;
	4022	0.0	0.0	1.00	122.2500	61.1250	44.0100	0.9	0.85	1000	-1000	1000	0.1	0.01	0	0	1;
...
];

%% branch data
%	fbus	tbus	r	x	b	rateA	rateB	rateC	ratio	angle	status	angmin	angmax
mpc.branch = [
	4639	 1	 0.005726	 0.010482	 0.0	 2186	 2186	 2186	 0.0	 0.0	 1	 -30.0	 30.0;
	5234	 1	 0.01284	 0.025679	 0.0	 910	 910	 910	 0.0	 0.0	 1	 -30.0	 30.0;
	1676	 2	 0.005799	 0.010615	 0.0075	 2441	 2441	 2441	 0.0	 0.0	 1	 -30.0	 30.0;
	1667	 3	 0.134039	 0.309398	 0.0035	 91	 91	 91	 0.0	 0.0	 1	 -30.0	 30.0;
	2296	 3	 0.049131	 0.133283	 0.0015	 215	 215	 215	 0.0	 0.0	 1	 -30.0	 30.0;
	695	 4	 0.025926	 0.109136	 0.0002	 281	 281	 281	 0.0	 0.0	 1	 -30.0	 30.0;
	3931	 4	 0.05	 0.126914	 0.0006	 226	 226	 226	 0.0	 0.0	 1	 -30.0	 30.0;
	5036	 4	 0.02321	 0.097407	 0.0016	 315	 315	 315	 0.0	 0.0	 1	 -30.0	 30.0;
	4405	 5	 0.040564	 0.113631	 0.0013	 245	 245	 245	 0.0	 0.0	 1	 -30.0	 30.0;
	2772	 6	 0.006047	 0.020912	 0.0222	 1398	 1398	 1398	 0.0	 0.0	 1	 -30.0	 30.0;
	2773	 7	 0.012472	 0.032099	 0.0061	 884	 884	 884	 0.0	 0.0	 1	 -30.0	 30.0;
	2459	 8	 0.002607	 0.017462	 0.0324	 540.0	 540.0	 540.0	 0.0	 0.0	 1	 -30.0	 30.0;
	470	 9	 0.053893	 0.14258	 0.0017	 194	 194	 194	 0.0	 0.0	 1	 -30.0	 30.0;
	11	 10	 0.000247	 0.001235	 0.0005	 24078	 24078	 24078	 0.0	 0.0	 1	 -30.0	 30.0;
...